@<TRIPOS>MOLECULE
HED
  152   157     3     0     1 
SMALL
USER_CHARGES
@<TRIPOS>ATOM
  1 C302    3.540003    1.419779    0.000002 C     1 HED    -0.0792 ****
  2 H       3.861136    1.049619   -1.000424 H     1 HED     0.0401 ****
  3 H1      4.397111    1.323742    0.705083 H     1 HED     0.0401 ****
  4 C303    3.157051    2.903829   -0.128007 C     1 HED    -0.0787 ****
  5 H2      2.303809    3.003889   -0.837205 H     1 HED     0.0388 ****
  6 C304    4.366134    3.674817   -0.670026 C     1 HED    -0.0787 ****
  7 H4      4.644126    3.188818   -1.624999 H     1 HED     0.0398 ****
  8 H5      5.208400    3.571762    0.050208 H     1 HED     0.0398 ****
  9 C305    4.109147    5.171126   -0.922094 C     1 HED    -0.0782 ****
 10 H6      3.285854    5.297206   -1.660376 H     1 HED     0.0390 ****
 11 C306    5.376780    5.902827   -1.419926 C     1 HED    -0.0782 ****
 12 C307    5.887830    5.374717   -2.780090 C     1 HED    -0.0787 ****
 13 H11     6.087747    4.290901   -2.700088 H     1 HED     0.0398 ****
 14 C308    7.226647    5.972541   -3.231013 C     1 HED    -0.0787 ****
 15 H13     7.996700    5.779493   -2.450936 H     1 HED     0.0388 ****
 16 C309    7.186753    7.468194   -3.564959 C     1 HED    -0.0792 ****
 17 H15     6.929868    8.055038   -2.657245 H     1 HED     0.0401 ****
 18 H16     6.412519    7.647289   -4.344225 H     1 HED     0.0401 ****
 19 C310    8.554480    7.915991   -4.098837 C     1 HED    -0.0802 ****
 20 H17     9.335561    7.739935   -3.325735 H     1 HED     0.0383 ****
 21 C311    8.562593    9.393349   -4.476955 C     1 HED    -0.0919 ****
 22 H19     8.336729   10.020107   -3.590366 H     1 HED     0.0326 ****
 23 H20     7.810744    9.590366   -5.270824 H     1 HED     0.0326 ****
 24 H21     9.566766    9.669309   -4.864002 H     1 HED     0.0326 ****
 25 H18     8.814327    7.322226   -5.002422 H     1 HED     0.0383 ****
 26 H14     7.528545    5.426648   -4.152766 H     1 HED     0.0388 ****
 27 H12     5.112920    5.531736   -3.562012 H     1 HED     0.0398 ****
 28 H8      6.175439    5.784840   -0.655225 H     1 HED     0.0390 ****
 29 H10     5.146891    6.984596   -1.514930 H     1 HED     0.0390 ****
 30 H7      3.790242    5.642013    0.034637 H     1 HED     0.0390 ****
 31 H3      2.851174    3.310711    0.860644 H     1 HED     0.0388 ****
 32 C301    2.391808    0.534696    0.489059 C     1 HED    -0.0802 ****
 33 H22     1.528828    0.620742   -0.206934 H     1 HED     0.0383 ****
 34 H23     2.070897    0.856630    1.502812 H     1 HED     0.0383 ****
 35 C18     2.809995   -0.943677    0.559584 C     2 COR     0.1270 ****
 36 H18     3.662250   -1.055708    1.261874 H     2 COR     0.0590 ****
 37 H19     3.116433   -1.292899   -0.451806 H     2 COR     0.0590 ****
 38 O1      1.723884   -1.673436    1.007360 O     2 COR    -0.3354 ****
 39 C11     0.521240   -1.156691    1.376440 C     2 COR     0.1146 ****
 40 C13    -0.613042   -1.750420    0.832590 C     2 COR    -0.1264 ****
 41 C12    -1.889275   -1.316746    1.176155 C     2 COR    -0.0279 ****
 42 C10    -2.056069   -0.234019    2.073338 C     2 COR    -0.0189 ****
 43 C14    -3.376965    0.103079    2.463625 C     2 COR    -0.1055 ****
 44 H7     -3.575220    0.867609    3.192881 H     2 COR     0.1497 ****
 45 C15    -4.478677   -0.567782    1.929779 C     2 COR    -0.1254 ****
 46 C16    -4.294901   -1.597384    1.014222 C     2 COR    -0.1205 ****
 47 C17    -3.008507   -1.978492    0.643259 C     2 COR    -0.1254 ****
 48 H10    -2.882463   -2.801923   -0.050377 H     2 COR     0.1306 ****
 49 H11    -5.153245   -2.116480    0.605965 H     2 COR     0.1316 ****
 50 H8     -5.478290   -0.289855    2.236787 H     2 COR     0.1386 ****
 51 H6     -0.491088   -2.581518    0.147420 H     2 COR     0.1477 ****
 52 C9      0.392613   -0.075090    2.289038 C     2 COR    -0.0190 ****
 53 S1      1.898336    0.595449    3.065479 S     2 COR    -0.1921 ****
 54 C1      1.279990    1.612198    4.457037 C     2 COR    -0.0252 ****
 55 C2     -0.197378    1.427405    4.817951 C     2 COR    -0.0264 ****
 56 C3     -0.472021    0.072885    5.497250 C     2 COR    -0.0927 ****
 57 H       0.117591   -0.004392    6.436893 H     2 COR     0.0452 ****
 58 H1     -0.196618   -0.788186    4.856646 H     2 COR     0.0452 ****
 59 H2     -1.549421   -0.005914    5.756712 H     2 COR     0.0452 ****
 60 H5     -0.455815    2.154671    5.601721 H     2 COR     0.0801 ****
 61 H3      1.899811    1.413700    5.357449 H     2 COR     0.0735 ****
 62 H4      1.448819    2.660843    4.141593 H     2 COR     0.0735 ****
 63 C4     -0.897878    0.435049    2.599645 C     2 COR    -0.0317 ****
 64 C5     -1.010026    1.602123    3.548026 C     2 COR    -0.0432 ****
 65 C6     -1.840231    2.697121    3.296336 C     2 COR    -0.0139 ****
 66 C8     -2.065764    3.845987    4.249931 C     2 COR    -0.0060 ****
 67 C19    -1.030964    4.449790    4.995271 C     2 COR    -0.1513 ****
 68 C24    -1.296052    5.524217    5.847881 C     2 COR    -0.0926 ****
 69 C25    -2.589563    6.026823    5.968982 C     2 COR    -0.1961 ****
 70 C26    -3.630969    5.468301    5.210864 C     2 COR     0.1628 ****
 71 C20    -3.359610    4.394360    4.348177 C     2 COR    -0.0240 ****
 72 S2     -4.724868    3.661113    3.448352 S     2 COR    -0.0994 ****
 73 O2     -4.907749    5.920990    5.290579 O     2 COR    -0.3245 ****
 74 C30    -5.448931    6.669243    6.314727 C     2 COR     0.1290 ****
 75 C      -6.921047    6.924807    5.980775 C     2 COR    -0.0840 ****
 76 H24    -6.956605    7.563709    5.071333 H     2 COR     0.0559 ****
 77 C31    -7.722899    7.605883    7.101282 C     2 COR    -0.0800 ****
 78 H26    -7.256847    8.573487    7.385640 H     2 COR     0.0499 ****
 79 C32    -7.883067    6.693834    8.334277 C     2 COR    -0.0771 ****
 80 H28    -6.888174    6.514834    8.790379 H     2 COR     0.0333 ****
 81 H29    -8.301053    5.712727    8.015707 H     2 COR     0.0333 ****
 82 C33    -8.792074    7.268526    9.430969 C     2 COR    -0.0800 ****
 83 H30    -8.384116    8.233854    9.802798 H     2 COR     0.0409 ****
 84 H31    -8.780855    6.538536   10.271063 H     2 COR     0.0409 ****
 85 C34   -10.248639    7.451394    8.972252 C     2 COR    -0.0781 ****
 86 H32   -10.305353    8.238011    8.191152 H     2 COR     0.0328 ****
 87 C35   -11.152628    7.845619   10.144607 C     2 COR    -0.0810 ****
 88 H34   -10.773507    8.789223   10.592044 H     2 COR     0.0434 ****
 89 H35   -11.115850    7.041071   10.911348 H     2 COR     0.0434 ****
 90 C36   -12.605006    8.031099    9.677100 C     2 COR    -0.0741 ****
 91 C39   -13.588562    8.292100   10.830331 C     2 COR    -0.0671 ****
 92 C38   -13.303544    9.593057   11.599565 C     2 COR    -0.1935 ****
 93 C37   -14.310307    9.860637   12.694074 C     2 COR     0.9116 ****
 94 O     -14.191310   10.962816   13.462736 O     2 COR    -0.8490 ****
 95 O4    -15.233760    9.088284   12.897901 O     2 COR    -0.8490 ****
 96 H36   -13.321569   10.449088   10.890037 H     2 COR     0.0183 ****
 97 H37   -12.302775    9.539253   12.074378 H     2 COR     0.0183 ****
 98 H38   -14.608490    8.355501   10.391846 H     2 COR     0.0454 ****
 99 H39   -13.563506    7.430199   11.532501 H     2 COR     0.0454 ****
100 H40   -12.935891    7.097459    9.169557 H     2 COR     0.0208 ****
101 H41   -12.658884    8.862934    8.941103 H     2 COR     0.0208 ****
102 H33   -10.620032    6.493066    8.547730 H     2 COR     0.0328 ****
103 H27    -8.726058    7.811351    6.675447 H     2 COR     0.0499 ****
104 H25    -7.417808    5.959550    5.735264 H     2 COR     0.0559 ****
105 H22    -4.921542    7.640277    6.429946 H     2 COR     0.0439 ****
106 H23    -5.355647    6.079291    7.249144 H     2 COR     0.0439 ****
107 H13    -2.768763    6.855387    6.639750 H     2 COR     0.1466 ****
108 H12    -0.489665    5.972531    6.415017 H     2 COR     0.1356 ****
109 H14    -0.010922    4.121520    4.909376 H     2 COR     0.1386 ****
110 C7     -2.533206    2.874653    1.964266 C     2 COR    -0.0259 ****
111 C22    -1.846184    2.589363    0.768826 C     2 COR    -0.1075 ****
112 C27    -2.446857    2.802483   -0.464184 C     2 COR    -0.1175 ****
113 C28    -3.736571    3.313244   -0.535471 C     2 COR    -0.1294 ****
114 H17    -4.184282    3.475556   -1.508147 H     2 COR     0.1466 ****
115 H16    -1.903697    2.581087   -1.374596 H     2 COR     0.1346 ****
116 H15    -0.829070    2.223581    0.784447 H     2 COR     0.1456 ****
117 C21    -3.848263    3.400923    1.898022 C     2 COR    -0.0150 ****
118 C23    -4.460738    3.620789    0.621299 C     2 COR     0.1246 ****
119 O3     -5.718883    4.113661    0.421037 O     2 COR    -0.3474 ****
120 C29    -6.666053    4.525431    1.334796 C     2 COR     0.1179 ****
121 H20    -6.264912    5.361363    1.948674 H     2 COR     0.0479 ****
122 H21    -6.978992    3.670978    1.972212 H     2 COR     0.0479 ****
123 C201   -7.905419    4.995137    0.554545 C     3 RLG    -0.0805 ****
124 H17    -8.304288    4.158736   -0.056549 H     3 RLG     0.0367 ****
125 H18    -7.630882    5.838322   -0.116434 H     3 RLG     0.0367 ****
126 C202   -9.018353    5.474488    1.500044 C     3 RLG    -0.0795 ****
127 H      -8.598230    6.229739    2.201372 H     3 RLG     0.0382 ****
128 C203   -9.615003    4.289415    2.283813 C     3 RLG    -0.0785 ****
129 H2     -8.811582    3.763987    2.845048 H     3 RLG     0.0367 ****
130 H3    -10.064917    3.576990    1.556629 H     3 RLG     0.0367 ****
131 C204  -10.699685    4.751698    3.268219 C     3 RLG    -0.0795 ****
132 H4    -10.239201    5.444644    4.007508 H     3 RLG     0.0372 ****
133 C205  -11.346845    3.573533    4.017640 C     3 RLG    -0.0785 ****
134 H6    -10.566088    3.016061    4.581920 H     3 RLG     0.0342 ****
135 H7    -11.818393    2.881114    3.286379 H     3 RLG     0.0342 ****
136 C206  -12.416209    4.085916    4.995543 C     3 RLG    -0.0785 ****
137 H8    -11.939140    4.783116    5.718634 H     3 RLG     0.0367 ****
138 C207  -13.088042    2.948011    5.774624 C     3 RLG    -0.0785 ****
139 H11   -12.319434    2.394474    6.357191 H     3 RLG     0.0257 ****
140 H12   -13.571921    2.244403    5.060785 H     3 RLG     0.0257 ****
141 C208  -14.150269    3.507311    6.734428 C     3 RLG    -0.0655 ****
142 H13   -13.660350    4.212242    7.442821 H     3 RLG     0.0437 ****
143 C209  -14.835105    2.387707    7.532415 C     3 RLG    -0.1936 ****
144 H15   -14.062160    1.841011    8.113793 H     3 RLG     0.0187 ****
145 H16   -15.309203    1.679421    6.819756 H     3 RLG     0.0187 ****
146 C210  -15.900579    2.861482    8.499641 C     3 RLG     0.9067 ****
147 O201  -16.490328    2.029147    9.172469 O     3 RLG    -0.8546 ****
148 O202  -16.226934    4.167130    8.648275 O     3 RLG    -0.8546 ****
149 H14   -14.917097    4.054211    6.141432 H     3 RLG     0.0437 ****
150 H10   -13.192089    4.640503    4.423716 H     3 RLG     0.0367 ****
151 H5    -11.489903    5.297477    2.709648 H     3 RLG     0.0372 ****
152 H1     -9.833491    5.951595    0.913135 H     3 RLG     0.0382 ****
@<TRIPOS>BOND
    1    32    33 1
    2    32    34 1
    3    32    35 1
    4    21    22 1
    5    21    23 1
    6    21    24 1
    7    19    20 1
    8    19    21 1
    9    19    25 1
   10    16    17 1
   11    16    18 1
   12    16    19 1
   13    14    15 1
   14    14    16 1
   15    14    26 1
   16    12    13 1
   17    12    14 1
   18    12    27 1
   19    11    12 1
   20    11    28 1
   21    11    29 1
   22     9    10 1
   23     9    11 1
   24     9    30 1
   25     6     7 1
   26     6     8 1
   27     6     9 1
   28     4     5 1
   29     4     6 1
   30     4    31 1
   31     1     2 1
   32     1     3 1
   33     1     4 1
   34     1    32 1
   35   120   121 1
   36   120   122 1
   37   120   123 1
   38   119   120 1
   39   118   119 1
   40   117   118 1
   41   113   114 1
   42   113   118 1
   43   112   113 1
   44   112   115 1
   45   111   112 1
   46   111   116 1
   47   110   111 1
   48   110   117 1
   49    93    94 1
   50    93    95 1
   51    92    93 1
   52    92    96 1
   53    92    97 1
   54    91    92 1
   55    91    98 1
   56    91    99 1
   57    90    91 1
   58    90   100 1
   59    90   101 1
   60    87    88 1
   61    87    89 1
   62    87    90 1
   63    85    86 1
   64    85    87 1
   65    85   102 1
   66    82    83 1
   67    82    84 1
   68    82    85 1
   69    79    80 1
   70    79    81 1
   71    79    82 1
   72    77    78 1
   73    77    79 1
   74    77   103 1
   75    75    76 1
   76    75    77 1
   77    75   104 1
   78    74    75 1
   79    74   105 1
   80    74   106 1
   81    73    74 1
   82    72   117 1
   83    71    72 1
   84    70    71 1
   85    70    73 1
   86    69    70 1
   87    69   107 1
   88    68    69 1
   89    68   108 1
   90    67    68 1
   91    67   109 1
   92    66    67 1
   93    66    71 1
   94    65    66 1
   95    65   110 1
   96    64    65 1
   97    63    64 1
   98    56    57 1
   99    56    58 1
  100    56    59 1
  101    55    56 1
  102    55    60 1
  103    55    64 1
  104    54    55 1
  105    54    61 1
  106    54    62 1
  107    53    54 1
  108    52    53 1
  109    52    63 1
  110    47    48 1
  111    46    47 1
  112    46    49 1
  113    45    46 1
  114    45    50 1
  115    43    44 1
  116    43    45 1
  117    42    43 1
  118    42    63 1
  119    41    42 1
  120    41    47 1
  121    40    41 1
  122    40    51 1
  123    39    40 1
  124    39    52 1
  125    38    39 1
  126    35    36 1
  127    35    37 1
  128    35    38 1
  129   146   147 1
  130   146   148 1
  131   143   144 1
  132   143   145 1
  133   143   146 1
  134   141   142 1
  135   141   143 1
  136   141   149 1
  137   138   139 1
  138   138   140 1
  139   138   141 1
  140   136   137 1
  141   136   138 1
  142   136   150 1
  143   133   134 1
  144   133   135 1
  145   133   136 1
  146   131   132 1
  147   131   133 1
  148   131   151 1
  149   128   129 1
  150   128   130 1
  151   128   131 1
  152   126   127 1
  153   126   128 1
  154   126   152 1
  155   123   124 1
  156   123   125 1
  157   123   126 1
@<TRIPOS>SUBSTRUCTURE
      1  HED              1 ****               0 ****  **** 
      2  COR             35 ****               0 ****  **** 
      3  RLG            123 ****               0 ****  **** 
