@<TRIPOS>MOLECULE
HED
  152   157     3     0     1 
SMALL
USER_CHARGES
@<TRIPOS>ATOM
  1 C302    3.540003    1.419779    0.000002 C     1 HED    -0.0792 ****
  2 H       3.861136    1.049619   -1.000424 H     1 HED     0.0401 ****
  3 H1      4.397111    1.323742    0.705083 H     1 HED     0.0401 ****
  4 C303    3.157051    2.903829   -0.128007 C     1 HED    -0.0787 ****
  5 H2      2.303809    3.003889   -0.837205 H     1 HED     0.0388 ****
  6 C304    4.366134    3.674817   -0.670026 C     1 HED    -0.0787 ****
  7 H4      4.644126    3.188818   -1.624999 H     1 HED     0.0398 ****
  8 H5      5.208400    3.571762    0.050208 H     1 HED     0.0398 ****
  9 C305    4.109147    5.171126   -0.922094 C     1 HED    -0.0782 ****
 10 H6      3.285854    5.297206   -1.660376 H     1 HED     0.0390 ****
 11 C306    5.376780    5.902827   -1.419926 C     1 HED    -0.0782 ****
 12 C307    5.887830    5.374717   -2.780090 C     1 HED    -0.0787 ****
 13 H11     6.087747    4.290901   -2.700088 H     1 HED     0.0398 ****
 14 C308    7.226647    5.972541   -3.231013 C     1 HED    -0.0787 ****
 15 H13     7.996700    5.779493   -2.450936 H     1 HED     0.0388 ****
 16 C309    7.186753    7.468194   -3.564959 C     1 HED    -0.0792 ****
 17 H15     6.929868    8.055038   -2.657245 H     1 HED     0.0401 ****
 18 H16     6.412519    7.647289   -4.344225 H     1 HED     0.0401 ****
 19 C310    8.554480    7.915991   -4.098837 C     1 HED    -0.0802 ****
 20 H17     9.335561    7.739935   -3.325735 H     1 HED     0.0383 ****
 21 C311    8.562593    9.393349   -4.476955 C     1 HED    -0.0919 ****
 22 H19     8.336729   10.020107   -3.590366 H     1 HED     0.0326 ****
 23 H20     7.810744    9.590366   -5.270824 H     1 HED     0.0326 ****
 24 H21     9.566766    9.669309   -4.864002 H     1 HED     0.0326 ****
 25 H18     8.814327    7.322226   -5.002422 H     1 HED     0.0383 ****
 26 H14     7.528545    5.426648   -4.152766 H     1 HED     0.0388 ****
 27 H12     5.112920    5.531736   -3.562012 H     1 HED     0.0398 ****
 28 H8      6.175439    5.784840   -0.655225 H     1 HED     0.0390 ****
 29 H10     5.146891    6.984596   -1.514930 H     1 HED     0.0390 ****
 30 H7      3.790242    5.642013    0.034637 H     1 HED     0.0390 ****
 31 H3      2.851174    3.310711    0.860644 H     1 HED     0.0388 ****
 32 C301    2.391808    0.534696    0.489059 C     1 HED    -0.0802 ****
 33 H22     1.528828    0.620742   -0.206934 H     1 HED     0.0383 ****
 34 H23     2.070897    0.856630    1.502812 H     1 HED     0.0383 ****
 35 C18     2.809995   -0.943677    0.559584 C     2 COR     0.1270 ****
 36 H18     3.662250   -1.055708    1.261874 H     2 COR     0.0590 ****
 37 H19     3.116433   -1.292899   -0.451806 H     2 COR     0.0590 ****
 38 O1      1.723884   -1.673436    1.007360 O     2 COR    -0.3354 ****
 39 C11     1.154438   -2.723994    0.358007 C     2 COR     0.1146 ****
 40 C13    -0.228989   -2.701035    0.214881 C     2 COR    -0.1264 ****
 41 C12    -0.907658   -3.746461   -0.402673 C     2 COR    -0.0279 ****
 42 C10    -0.191198   -4.849979   -0.926112 C     2 COR    -0.0189 ****
 43 C14    -0.939080   -5.931214   -1.457457 C     2 COR    -0.1055 ****
 44 H7     -0.465380   -6.829920   -1.808972 H     2 COR     0.1497 ****
 45 C15    -2.332640   -5.879689   -1.521898 C     2 COR    -0.1254 ****
 46 C16    -3.014625   -4.766345   -1.044968 C     2 COR    -0.1205 ****
 47 C17    -2.310170   -3.707027   -0.479943 C     2 COR    -0.1254 ****
 48 H10    -2.859436   -2.858921   -0.087414 H     2 COR     0.1306 ****
 49 H11    -4.095989   -4.733418   -1.094521 H     2 COR     0.1316 ****
 50 H8     -2.883125   -6.713452   -1.937264 H     2 COR     0.1386 ****
 51 H6     -0.782607   -1.859947    0.616296 H     2 COR     0.1477 ****
 52 C9      1.905738   -3.820402   -0.144665 C     2 COR    -0.0190 ****
 53 S1      3.700298   -3.864799    0.167211 S     2 COR    -0.1921 ****
 54 C1      4.188273   -5.586432   -0.220631 C     2 COR    -0.0252 ****
 55 C2      3.040433   -6.586879   -0.389729 C     2 COR    -0.0264 ****
 56 C3      2.356982   -6.929509    0.947095 C     2 COR    -0.0927 ****
 57 H       3.096986   -7.379040    1.644848 H     2 COR     0.0452 ****
 58 H1      1.924701   -6.038913    1.444725 H     2 COR     0.0452 ****
 59 H2      1.547179   -7.670671    0.776154 H     2 COR     0.0452 ****
 60 H5      3.465404   -7.551196   -0.705150 H     2 COR     0.0801 ****
 61 H3      4.877495   -5.956714    0.568155 H     2 COR     0.0735 ****
 62 H4      4.752306   -5.516004   -1.171721 H     2 COR     0.0735 ****
 63 C4      1.243802   -4.866071   -0.845022 C     2 COR    -0.0317 ****
 64 C5      2.063597   -6.005760   -1.395575 C     2 COR    -0.0432 ****
 65 C6      1.879031   -6.508857   -2.685706 C     2 COR    -0.0139 ****
 66 C8      2.601234   -7.705844   -3.256446 C     2 COR    -0.0060 ****
 67 C19     3.977522   -7.947298   -3.060355 C     2 COR    -0.1513 ****
 68 C24     4.596935   -9.062204   -3.630373 C     2 COR    -0.0926 ****
 69 C25     3.866004   -9.952106   -4.414123 C     2 COR    -0.1961 ****
 70 C26     2.503316   -9.715384   -4.655491 C     2 COR     0.1628 ****
 71 C20     1.885792   -8.589149   -4.088504 C     2 COR    -0.0240 ****
 72 S2      0.129957   -8.355633   -4.360127 S     2 COR    -0.0994 ****
 73 O2      1.746525  -10.549783   -5.412126 O     2 COR    -0.3245 ****
 74 C30     2.037268  -11.860724   -5.726042 C     2 COR     0.1290 ****
 75 C       0.887908  -12.404049   -6.579112 C     2 COR    -0.0840 ****
 76 H24     0.884107  -11.843753   -7.539632 H     2 COR     0.0559 ****
 77 C31     0.969326  -13.909259   -6.879253 C     2 COR    -0.0800 ****
 78 H26     1.926715  -14.157822   -7.385160 H     2 COR     0.0499 ****
 79 C32     0.785643  -14.763103   -5.608436 C     2 COR    -0.0771 ****
 80 H28     1.635510  -14.583132   -4.919076 H     2 COR     0.0333 ****
 81 H29    -0.151788  -14.458469   -5.091532 H     2 COR     0.0333 ****
 82 C33     0.719865  -16.275585   -5.867990 C     2 COR    -0.0800 ****
 83 H30     1.658929  -16.624861   -6.350390 H     2 COR     0.0409 ****
 84 H31     0.634952  -16.767626   -4.873277 H     2 COR     0.0409 ****
 85 C34    -0.495512  -16.689710   -6.714632 C     2 COR    -0.0781 ****
 86 H32    -0.398331  -16.284018   -7.743258 H     2 COR     0.0328 ****
 87 C35    -0.624221  -18.214470   -6.789234 C     2 COR    -0.0810 ****
 88 H34     0.305911  -18.634738   -7.228040 H     2 COR     0.0434 ****
 89 H35    -0.751128  -18.613863   -5.759223 H     2 COR     0.0434 ****
 90 C36    -1.837854  -18.619938   -7.640739 C     2 COR    -0.0741 ****
 91 C39    -2.103976  -20.134739   -7.641423 C     2 COR    -0.0671 ****
 92 C38    -0.959885  -20.960176   -8.253920 C     2 COR    -0.1935 ****
 93 C37    -1.260530  -22.440391   -8.295128 C     2 COR     0.9116 ****
 94 O      -0.349770  -23.297997   -8.799933 O     2 COR    -0.8490 ****
 95 O4     -2.319968  -22.876152   -7.872583 O     2 COR    -0.8490 ****
 96 H36    -0.772902  -20.611585   -9.293182 H     2 COR     0.0183 ****
 97 H37    -0.035350  -20.825283   -7.656492 H     2 COR     0.0183 ****
 98 H38    -3.026804  -20.311684   -8.236086 H     2 COR     0.0454 ****
 99 H39    -2.290804  -20.472182   -6.598460 H     2 COR     0.0454 ****
100 H40    -2.744508  -18.128424   -7.222216 H     2 COR     0.0208 ****
101 H41    -1.700438  -18.261595   -8.684411 H     2 COR     0.0208 ****
102 H33    -1.419422  -16.280438   -6.250488 H     2 COR     0.0328 ****
103 H27     0.136407  -14.125173   -7.578902 H     2 COR     0.0499 ****
104 H25    -0.079807  -12.203593   -6.067142 H     2 COR     0.0559 ****
105 H22     2.989101  -11.940281   -6.293496 H     2 COR     0.0439 ****
106 H23     2.120127  -12.424872   -4.774857 H     2 COR     0.0439 ****
107 H13     4.368102  -10.809900   -4.839150 H     2 COR     0.1466 ****
108 H12     5.653582   -9.233338   -3.465754 H     2 COR     0.1356 ****
109 H14     4.591797   -7.271208   -2.493616 H     2 COR     0.1386 ****
110 C7      0.978081   -5.816544   -3.683272 C     2 COR    -0.0259 ****
111 C22     0.982369   -4.411919   -3.780605 C     2 COR    -0.1075 ****
112 C27     0.205659   -3.763070   -4.730479 C     2 COR    -0.1175 ****
113 C28    -0.581812   -4.495469   -5.609571 C     2 COR    -0.1294 ****
114 H17    -1.176734   -3.968777   -6.345473 H     2 COR     0.1466 ****
115 H16     0.222659   -2.682105   -4.794617 H     2 COR     0.1346 ****
116 H15     1.608820   -3.810725   -3.136644 H     2 COR     0.1456 ****
117 C21     0.180059   -6.570048   -4.581113 C     2 COR    -0.0150 ****
118 C23    -0.617061   -5.893147   -5.560854 C     2 COR     0.1246 ****
119 O3     -1.431291   -6.499058   -6.475106 O     2 COR    -0.3474 ****
120 C29    -1.670986   -7.838441   -6.699246 C     2 COR     0.1179 ****
121 H20    -0.723122   -8.355766   -6.964714 H     2 COR     0.0479 ****
122 H21    -2.143866   -8.297008   -5.804583 H     2 COR     0.0479 ****
123 C201   -2.674184   -7.953309   -7.859351 C     3 RLG    -0.0805 ****
124 H17    -2.249426   -7.484701   -8.771538 H     3 RLG     0.0367 ****
125 H18    -3.621264   -7.436057   -7.590959 H     3 RLG     0.0367 ****
126 C202   -3.000558   -9.420860   -8.178950 C     3 RLG    -0.0795 ****
127 H      -3.313416   -9.935093   -7.242758 H     3 RLG     0.0382 ****
128 C203   -1.778642  -10.128582   -8.795984 C     3 RLG    -0.0785 ****
129 H2     -0.909348  -10.052700   -8.106699 H     3 RLG     0.0367 ****
130 H3     -1.520843   -9.617980   -9.750759 H     3 RLG     0.0367 ****
131 C204   -2.068418  -11.609511   -9.082646 C     3 RLG    -0.0795 ****
132 H4     -2.301730  -12.120323   -8.121705 H     3 RLG     0.0372 ****
133 C205   -0.877398  -12.317221   -9.752824 C     3 RLG    -0.0785 ****
134 H6      0.016528  -12.249024   -9.093269 H     3 RLG     0.0342 ****
135 H7     -0.644057  -11.818972  -10.719180 H     3 RLG     0.0342 ****
136 C206   -1.210988  -13.795348  -10.010168 C     3 RLG    -0.0785 ****
137 H8     -1.450446  -14.284981   -9.040908 H     3 RLG     0.0367 ****
138 C207   -0.050436  -14.549035  -10.672157 C     3 RLG    -0.0785 ****
139 H11     0.844119  -14.503126  -10.013213 H     3 RLG     0.0257 ****
140 H12     0.196708  -14.069245  -11.645548 H     3 RLG     0.0257 ****
141 C208   -0.431286  -16.018491  -10.913037 C     3 RLG    -0.0655 ****
142 H13    -0.680295  -16.490892   -9.936512 H     3 RLG     0.0437 ****
143 C209    0.717067  -16.798478  -11.570458 C     3 RLG    -0.1936 ****
144 H15     1.606043  -16.750751  -10.905805 H     3 RLG     0.0187 ****
145 H16     0.971106  -16.313487  -12.537189 H     3 RLG     0.0187 ****
146 C210    0.414892  -18.257572  -11.844247 C     3 RLG     0.9067 ****
147 O201    1.280277  -18.945479  -12.364994 O     3 RLG    -0.8546 ****
148 O202   -0.773246  -18.829872  -11.537462 O     3 RLG    -0.8546 ****
149 H14    -1.323453  -16.053481  -11.577554 H     3 RLG     0.0437 ****
150 H10    -2.104078  -13.854151  -10.670075 H     3 RLG     0.0367 ****
151 H5     -2.951883  -11.684919   -9.752067 H     3 RLG     0.0372 ****
152 H1     -3.839040   -9.471586   -8.907592 H     3 RLG     0.0382 ****
@<TRIPOS>BOND
    1    32    33 1
    2    32    34 1
    3    32    35 1
    4    21    22 1
    5    21    23 1
    6    21    24 1
    7    19    20 1
    8    19    21 1
    9    19    25 1
   10    16    17 1
   11    16    18 1
   12    16    19 1
   13    14    15 1
   14    14    16 1
   15    14    26 1
   16    12    13 1
   17    12    14 1
   18    12    27 1
   19    11    12 1
   20    11    28 1
   21    11    29 1
   22     9    10 1
   23     9    11 1
   24     9    30 1
   25     6     7 1
   26     6     8 1
   27     6     9 1
   28     4     5 1
   29     4     6 1
   30     4    31 1
   31     1     2 1
   32     1     3 1
   33     1     4 1
   34     1    32 1
   35   120   121 1
   36   120   122 1
   37   120   123 1
   38   119   120 1
   39   118   119 1
   40   117   118 1
   41   113   114 1
   42   113   118 1
   43   112   113 1
   44   112   115 1
   45   111   112 1
   46   111   116 1
   47   110   111 1
   48   110   117 1
   49    93    94 1
   50    93    95 1
   51    92    93 1
   52    92    96 1
   53    92    97 1
   54    91    92 1
   55    91    98 1
   56    91    99 1
   57    90    91 1
   58    90   100 1
   59    90   101 1
   60    87    88 1
   61    87    89 1
   62    87    90 1
   63    85    86 1
   64    85    87 1
   65    85   102 1
   66    82    83 1
   67    82    84 1
   68    82    85 1
   69    79    80 1
   70    79    81 1
   71    79    82 1
   72    77    78 1
   73    77    79 1
   74    77   103 1
   75    75    76 1
   76    75    77 1
   77    75   104 1
   78    74    75 1
   79    74   105 1
   80    74   106 1
   81    73    74 1
   82    72   117 1
   83    71    72 1
   84    70    71 1
   85    70    73 1
   86    69    70 1
   87    69   107 1
   88    68    69 1
   89    68   108 1
   90    67    68 1
   91    67   109 1
   92    66    67 1
   93    66    71 1
   94    65    66 1
   95    65   110 1
   96    64    65 1
   97    63    64 1
   98    56    57 1
   99    56    58 1
  100    56    59 1
  101    55    56 1
  102    55    60 1
  103    55    64 1
  104    54    55 1
  105    54    61 1
  106    54    62 1
  107    53    54 1
  108    52    53 1
  109    52    63 1
  110    47    48 1
  111    46    47 1
  112    46    49 1
  113    45    46 1
  114    45    50 1
  115    43    44 1
  116    43    45 1
  117    42    43 1
  118    42    63 1
  119    41    42 1
  120    41    47 1
  121    40    41 1
  122    40    51 1
  123    39    40 1
  124    39    52 1
  125    38    39 1
  126    35    36 1
  127    35    37 1
  128    35    38 1
  129   146   147 1
  130   146   148 1
  131   143   144 1
  132   143   145 1
  133   143   146 1
  134   141   142 1
  135   141   143 1
  136   141   149 1
  137   138   139 1
  138   138   140 1
  139   138   141 1
  140   136   137 1
  141   136   138 1
  142   136   150 1
  143   133   134 1
  144   133   135 1
  145   133   136 1
  146   131   132 1
  147   131   133 1
  148   131   151 1
  149   128   129 1
  150   128   130 1
  151   128   131 1
  152   126   127 1
  153   126   128 1
  154   126   152 1
  155   123   124 1
  156   123   125 1
  157   123   126 1
@<TRIPOS>SUBSTRUCTURE
      1  HED              1 ****               0 ****  **** 
      2  COR             35 ****               0 ****  **** 
      3  RLG            123 ****               0 ****  **** 
