@<TRIPOS>MOLECULE
*****
 84 89 0 0 0
SMALL
GASTEIGER

@<TRIPOS>ATOM
      1 C1         -0.4072    0.6061    0.9137 C.3     1  COR      0.0050
      2 C2         -0.7529   -0.4966   -0.0930 C.3     1  COR     -0.0082
      3 C3         -0.4008   -0.0956   -1.5392 C.3     1  COR     -0.0576
      4 C4         -3.1407    0.2495   -0.4907 C.ar    1  COR      0.0037
      5 S1         -1.4701    2.0971    0.8755 S.3     1  COR     -0.1205
      6 H           0.6878    0.1105   -1.6215 H       1  COR      0.0236
      7 H          -0.9389    0.8155   -1.8732 H       1  COR      0.0236
      8 H          -0.6506   -0.9269   -2.2323 H       1  COR      0.0236
      9 C5         -2.2261   -0.8276    0.0600 C.2     1  COR     -0.0265
     10 C6         -2.7063   -2.0374    0.5850 C.2     1  COR     -0.0043
     11 C7         -4.1779   -2.2492    0.8276 C.ar    1  COR      0.0003
     12 C8         -1.8455   -3.2028    1.0521 C.ar    1  COR      0.0003
     13 C9         -2.8960    1.6107   -0.1472 C.ar    1  COR      0.0576
     14 C10        -4.1911   -0.0477   -1.4266 C.ar    1  COR     -0.0092
     15 C11        -3.7612    2.6306   -0.6360 C.ar    1  COR      0.1350
     16 H           0.6495    0.9150    0.7630 H       1  COR      0.0386
     17 H          -0.5107    0.2020    1.9405 H       1  COR      0.0386
     18 H          -0.0965   -1.3568    0.1035 H       1  COR      0.0355
     19 C12        -5.0260    0.9959   -1.8993 C.ar    1  COR     -0.0138
     20 C13        -4.8085    2.3061   -1.4898 C.ar    1  COR     -0.0111
     21 O1         -3.6093    3.9465   -0.3264 O.3     1  COR     -0.4911
     22 H          -5.4484    3.1010   -1.8593 H       1  COR      0.0660
     23 C14        -4.3971   -1.3459   -1.9560 C.ar    1  COR     -0.0534
     24 H          -3.7574   -2.1709   -1.6987 H       1  COR      0.0624
     25 C15        -5.4295   -1.6004   -2.8595 C.ar    1  COR     -0.0611
     26 C16        -6.2690   -0.5725   -3.2739 C.ar    1  COR     -0.0612
     27 H          -5.5724   -2.6016   -3.2450 H       1  COR      0.0618
     28 C17        -6.0653    0.7225   -2.8057 C.ar    1  COR     -0.0539
     29 H          -6.7106    1.5175   -3.1616 H       1  COR      0.0624
     30 H          -7.0664   -0.7756   -3.9770 H       1  COR      0.0618
     31 C18        -3.4491    4.4645    0.9455 C.3     1  COR      0.0868
     32 C19        -0.6794   -3.0249    1.8196 C.ar    1  COR     -0.0527
     33 C20        -2.2648   -4.5323    0.7743 C.ar    1  COR      0.0622
     34 S2         -3.7530   -4.8009   -0.1794 S.3     1  COR     -0.0809
     35 C21        -4.7691   -3.5173    0.6013 C.ar    1  COR      0.0622
     36 C22        -4.9638   -1.2020    1.3541 C.ar    1  COR     -0.0527
     37 C23        -6.1579   -3.7087    0.9078 C.ar    1  COR      0.1347
     38 C24         0.0680   -4.1249    2.2496 C.ar    1  COR     -0.0577
     39 C25        -0.3187   -5.4294    1.9193 C.ar    1  COR     -0.0188
     40 C26        -1.4889   -5.6563    1.1727 C.ar    1  COR      0.1348
     41 H           0.9582   -3.9609    2.8446 H       1  COR      0.0619
     42 H           0.2907   -6.2543    2.2591 H       1  COR      0.0654
     43 H          -0.3545   -2.0419    2.1204 H       1  COR      0.0624
     44 O2         -1.8890   -6.9252    0.8066 O.3     1  COR     -0.4908
     45 C27        -6.3073   -1.3953    1.6379 C.ar    1  COR     -0.0577
     46 C28        -6.8943   -2.6334    1.4206 C.ar    1  COR     -0.0188
     47 H          -4.5335   -0.2340    1.5721 H       1  COR      0.0624
     48 H          -6.8968   -0.5812    2.0424 H       1  COR      0.0619
     49 H          -7.9438   -2.7646    1.6549 H       1  COR      0.0654
     50 O3         -6.8474   -4.8736    0.7407 O.3     1  COR     -0.4911
     51 C29        -6.4031   -6.0989    0.2965 C.3     1  COR      0.0868
     52 C30        -1.1204   -8.1007    0.8016 C.3     1  COR      0.0896
     53 C999       -4.5339    5.5009    1.2047 C.3     1  DUM     -0.0307
     54 H          -2.4558    4.9559    1.0185 H       1  COR      0.0694
     55 H          -3.5371    3.6762    1.7243 H       1  COR      0.0694
     56 H999       -4.4695    6.3193    0.4561 H       1  DUM      0.0262
     57 H998       -4.4075    5.9326    2.2200 H       1  DUM      0.0262
     58 H997       -5.5368    5.0274    1.1379 H       1  DUM      0.0262
     59 C998       -7.5494   -7.0934    0.3450 C.3     1  DUM     -0.0307
     60 H          -5.5935   -6.4726    0.9605 H       1  COR      0.0694
     61 H          -6.0614   -6.0212   -0.7570 H       1  COR      0.0694
     62 H996       -8.3797   -6.7473   -0.3062 H       1  DUM      0.0262
     63 H995       -7.1970   -8.0839   -0.0116 H       1  DUM      0.0262
     64 H994       -7.9197   -7.1949    1.3874 H       1  DUM      0.0262
     65 C          -1.9807   -9.3033    0.2963 C.3     1  LLG     -0.0186
     66 H          -0.7527   -8.3224    1.8278 H       1  COR      0.0696
     67 H          -0.2538   -7.9537    0.1254 H       1  COR      0.0696
     68 H          -2.7979   -9.4154    1.0436 H       1  LLG      0.0298
     69 C          -1.3084  -10.7222    0.1255 C.3     1  LLG     -0.0500
     70 H          -2.4546   -9.0260   -0.6691 H       1  LLG      0.0298
     71 H          -0.7987  -11.0036    1.0715 H       1  LLG      0.0266
     72 C          -0.3368  -10.8679   -1.0843 C.3     1  LLG     -0.0525
     73 H          -2.1336  -11.4478   -0.0437 H       1  LLG      0.0266
     74 H           0.4857  -10.1438   -0.9151 H       1  LLG      0.0265
     75 H          -0.8695  -10.5733   -2.0138 H       1  LLG      0.0265
     76 C           0.3384  -12.2688   -1.3409 C.3     1  LLG     -0.0428
     77 H           0.8850  -12.6021   -0.4326 H       1  LLG      0.0270
     78 H           1.0970  -12.1029   -2.1394 H       1  LLG      0.0270
     79 C          -0.5748  -13.4194   -1.8578 C.3     1  LLG      0.0492
     80 C           0.1936  -14.6650   -2.2277 C.2     1  LLG      0.3560
     81 O           0.2321  -15.4092   -1.2817 O.co2   1  LLG     -0.2464
     82 O           0.5957  -14.5753   -3.3498 O.co2   1  LLG     -0.2464
     83 H          -1.1222  -13.0699   -2.7625 H       1  LLG       0.0379
     84 H          -1.3442  -13.6625   -1.0944 H       1  LLG       0.0379
@<TRIPOS>BOND
     1     1     2    1
     2     1     5    1
     3     1    16    1
     4     1    17    1
     5     2     3    1
     6     2     9    1
     7     2    18    1
     8     3     6    1
     9     3     7    1
    10     3     8    1
    11     4     9    1
    12     4    13   ar
    13     4    14   ar
    14     5    13    1
    15     9    10    2
    16    10    11    1
    17    10    12    1
    18    11    35   ar
    19    11    36   ar
    20    12    32   ar
    21    12    33   ar
    22    13    15   ar
    23    14    19   ar
    24    14    23   ar
    25    15    20   ar
    26    15    21    1
    27    19    20   ar
    28    19    28   ar
    29    20    22    1
    30    21    31    1
    31    23    24    1
    32    23    25   ar
    33    25    26   ar
    34    25    27    1
    35    26    28   ar
    36    26    30    1
    37    28    29    1
    38    32    38   ar
    39    32    43    1
    40    33    34    1
    41    33    40   ar
    42    34    35    1
    43    35    37   ar
    44    36    45   ar
    45    36    47    1
    46    37    46   ar
    47    37    50    1
    48    38    39   ar
    49    38    41    1
    50    39    40   ar
    51    39    42    1
    52    40    44    1
    53    44    52    1
    54    45    46   ar
    55    45    48    1
    56    46    49    1
    57    50    51    1
    58    31    53    1
    59    31    54    1
    60    31    55    1
    61    53    56    1
    62    53    57    1
    63    53    58    1
    64    51    59    1
    65    51    60    1
    66    51    61    1
    67    59    62    1
    68    59    63    1
    69    59    64    1
    70    52    65    1
    71    52    66    1
    72    52    67    1
    73    65    68    1
    74    65    69    1
    75    65    70    1
    76    69    71    1
    77    69    72    1
    78    69    73    1
    79    72    74    1
    80    72    75    1
    81    72    76    1
    82    76    77    1
    83    76    78    1
    84    76    79    1
    85    80    81   ar
    86    80    82   ar
    87    80    79    1
    88    79    83    1
    89    79    84    1
