@<TRIPOS>MOLECULE
*****
 99 104 0 0 0
SMALL
GASTEIGER

@<TRIPOS>ATOM
      1 C1          0.4025    0.6472    0.8976 C.3     1  COR      0.0050
      2 C2          0.7507   -0.4593   -0.1023 C.3     1  COR     -0.0082
      3 C3          0.3966   -0.0745   -1.5510 C.3     1  COR     -0.0576
      4 C4          3.1375    0.2790   -0.5062 C.ar    1  COR      0.0037
      5 S1          1.4696    2.1341    0.8513 S.3     1  COR     -0.1205
      6 H          -0.6932    0.1254   -1.6338 H       1  COR      0.0236
      7 H           0.9321    0.8347   -1.8926 H       1  COR      0.0236
      8 H           0.6485   -0.9128   -2.2355 H       1  COR      0.0236
      9 C5          2.2252   -0.7813    0.0549 C.2     1  COR     -0.0265
     10 C6          2.7083   -1.9706    0.6029 C.2     1  COR     -0.0043
     11 C7          4.1848   -2.1924    0.8424 C.ar    1  COR      0.0003
     12 C8          1.8461   -3.1059    1.1015 C.ar    1  COR      0.0003
     13 C9          2.8978    1.6387   -0.1676 C.ar    1  COR      0.0576
     14 C10         4.1857   -0.0325   -1.4379 C.ar    1  COR     -0.0092
     15 C11         3.7692    2.6497   -0.6560 C.ar    1  COR      0.1350
     16 H          -0.6549    0.9520    0.7465 H       1  COR      0.0386
     17 H           0.5073    0.2523    1.9275 H       1  COR      0.0386
     18 H           0.0959   -1.3210    0.0949 H       1  COR      0.0355
     19 C12         5.0264    1.0028   -1.9144 C.ar    1  COR     -0.0138
     20 C13         4.8161    2.3165   -1.5085 C.ar    1  COR     -0.0111
     21 O1          3.6246    3.9647   -0.3433 O.3     1  COR     -0.4911
     22 H           5.4617    3.1058   -1.8781 H       1  COR      0.0660
     23 C14         4.3845   -1.3367   -1.9575 C.ar    1  COR     -0.0534
     24 H           3.7402   -2.1570   -1.6934 H       1  COR      0.0624
     25 C15         5.4160   -1.6029   -2.8588 C.ar    1  COR     -0.0611
     26 C16         6.2611   -0.5817   -3.2789 C.ar    1  COR     -0.0612
     27 H           5.5541   -2.6075   -3.2381 H       1  COR      0.0618
     28 C17         6.0647    0.7176   -2.8180 C.ar    1  COR     -0.0539
     29 H           6.7150    1.5067   -3.1769 H       1  COR      0.0624
     30 H           7.0578   -0.7935   -3.9802 H       1  COR      0.0618
     31 C18         3.4623    4.4744    0.9320 C.3     1  COR      0.0868
     32 C19         0.6717   -2.9157    1.8610 C.ar    1  COR     -0.0527
     33 C20         2.2771   -4.4260    0.8667 C.ar    1  COR      0.0622
     34 S2          3.7373   -4.7382   -0.1195 S.3     1  COR     -0.0809
     35 C21         4.7663   -3.4676    0.6276 C.ar    1  COR      0.0622
     36 C22         4.9823   -1.1518    1.3554 C.ar    1  COR     -0.0527
     37 C23         6.1525   -3.6772    0.9249 C.ar    1  COR      0.1347
     38 C24        -0.0676   -4.0091    2.3197 C.ar    1  COR     -0.0577
     39 C25         0.3513   -5.3097    2.0444 C.ar    1  COR     -0.0188
     40 C26         1.5351   -5.5246    1.3200 C.ar    1  COR      0.1348
     41 H          -0.9681   -3.8454    2.8979 H       1  COR      0.0619
     42 H          -0.2400   -6.1395    2.4065 H       1  COR      0.0654
     43 H           0.3299   -1.9333    2.1300 H       1  COR      0.0624
     44 O2          1.9874   -6.7684    1.0186 O.3     1  COR     -0.4908
     45 C27         6.3255   -1.3604    1.6380 C.ar    1  COR     -0.0577
     46 C28         6.9008   -2.6071    1.4272 C.ar    1  COR     -0.0188
     47 H           4.5600   -0.1792    1.5653 H       1  COR      0.0624
     48 H           6.9242   -0.5511    2.0356 H       1  COR      0.0619
     49 H           7.9494   -2.7489    1.6582 H       1  COR      0.0654
     50 O3          6.8285   -4.8531    0.7580 O.3     1  COR     -0.4911
     51 C29         6.3775   -6.0771    0.3096 C.3     1  COR      0.0868
     52 C30         1.2408   -7.9253    1.0150 C.3     1  COR      0.0896
     53 C999        4.5492    5.5042    1.1999 C.3     1  DUM     -0.0307
     54 H           2.4697    4.9671    1.0068 H       1  COR      0.0694
     55 H           3.5468    3.6811    1.7069 H       1  COR      0.0694
     56 H999        4.4880    6.3258    0.4548 H       1  DUM      0.0262
     57 H998        4.4215    5.9299    2.2174 H       1  DUM      0.0262
     58 H997        5.5498    5.0261    1.1320 H       1  DUM      0.0262
     59 C998        7.5195   -7.0803    0.3495 C.3     1  DUM     -0.0307
     60 H           5.5681   -6.4520    0.9730 H       1  COR      0.0694
     61 H           6.0319   -5.9956   -0.7427 H       1  COR      0.0694
     62 H996        8.3505   -6.7388   -0.3036 H       1  DUM      0.0262
     63 H995        7.1621   -8.0687   -0.0097 H       1  DUM      0.0262
     64 H994        7.8942   -7.1901    1.3894 H       1  DUM      0.0262
     65 C           2.1417   -9.0669    0.5291 C.3     1  LLG     -0.0186
     66 H           0.8464   -8.1581    2.0277 H       1  COR      0.0696
     67 H           0.3970   -7.7687    0.3145 H       1  COR      0.0696
     68 H           2.9369   -9.2252    1.2905 H       1  LLG      0.0298
     69 C           1.4050  -10.3934    0.2842 C.3     1  LLG     -0.0500
     70 H           2.6368   -8.7670   -0.4212 H       1  LLG      0.0298
     71 H           0.8910  -10.7248    1.2124 H       1  LLG      0.0266
     72 C           0.4028  -10.2832   -0.8804 C.3     1  LLG     -0.0530
     73 H           2.1787  -11.1451    0.0234 H       1  LLG      0.0266
     74 H          -0.3899   -9.5567   -0.6128 H       1  LLG      0.0265
     75 H           0.9224   -9.9139   -1.7922 H       1  LLG      0.0265
     76 C          -0.3131  -11.5943   -1.2178 C.3     1  LLG     -0.0531
     77 H          -0.8524  -11.9685   -0.3202 H       1  LLG      0.0265
     78 H          -1.0668  -11.3550   -2.0006 H       1  LLG      0.0265
     79 C           0.6164  -12.6848   -1.7733 C.3     1  LLG     -0.0531
     80 H           1.3532  -12.9969   -1.0034 H       1  LLG      0.0265
     81 C          -0.2157  -13.8972   -2.2024 C.3     1  LLG     -0.0531
     82 H           1.1629  -12.2882   -2.6575 H       1  LLG      0.0265
     83 H          -0.7672  -14.2683   -1.3145 H       1  LLG      0.0265
     84 H          -0.9470  -13.5719   -2.9752 H       1  LLG      0.0265
     85 C           0.6530  -15.0184   -2.7903 C.3     1  LLG     -0.0530
     86 C          -1.0819  -19.1341   -3.4539 C.2     1  LLG      0.3560
     87 O          -0.6595  -19.8434   -2.5850 O.co2   1  LLG     -0.2464
     88 O          -1.0516  -18.9726   -4.6419 O.co2   1  LLG     -0.2464
     89 C          -1.8820  -18.0416   -2.8274 C.3     1  LLG      0.0492
     90 C          -1.0062  -16.9144   -2.2535 C.3     1  LLG     -0.0428
     91 H          -2.6084  -17.6015   -3.5510 H       1  LLG      0.0379
     92 H          -2.5004  -18.4579   -1.9984 H       1  LLG      0.0379
     93 C          -0.1879  -16.1865   -3.3371 C.3     1  LLG     -0.0526
     94 H          -1.6995  -16.2002   -1.7653 H       1  LLG      0.0270
     95 H          -0.3218  -17.3227   -1.4779 H       1  LLG      0.0270
     96 H           0.5085  -16.9107   -3.8115 H       1  LLG      0.0265
     97 H          -0.8730  -15.7993   -4.1231 H       1  LLG      0.0265
     98 H           1.2379  -14.6027   -3.6403 H       1  LLG      0.0265
     99 H           1.3689  -15.3893   -2.0245 H       1  LLG      0.0265
@<TRIPOS>BOND
     1     1     2    1
     2     1     5    1
     3     1    16    1
     4     1    17    1
     5     2     3    1
     6     2     9    1
     7     2    18    1
     8     3     6    1
     9     3     7    1
    10     3     8    1
    11     4     9    1
    12     4    13   ar
    13     4    14   ar
    14     5    13    1
    15     9    10    2
    16    10    11    1
    17    10    12    1
    18    11    35   ar
    19    11    36   ar
    20    12    32   ar
    21    12    33   ar
    22    13    15   ar
    23    14    19   ar
    24    14    23   ar
    25    15    20   ar
    26    15    21    1
    27    19    20   ar
    28    19    28   ar
    29    20    22    1
    30    21    31    1
    31    23    24    1
    32    23    25   ar
    33    25    26   ar
    34    25    27    1
    35    26    28   ar
    36    26    30    1
    37    28    29    1
    38    32    38   ar
    39    32    43    1
    40    33    34    1
    41    33    40   ar
    42    34    35    1
    43    35    37   ar
    44    36    45   ar
    45    36    47    1
    46    37    46   ar
    47    37    50    1
    48    38    39   ar
    49    38    41    1
    50    39    40   ar
    51    39    42    1
    52    40    44    1
    53    44    52    1
    54    45    46   ar
    55    45    48    1
    56    46    49    1
    57    50    51    1
    58    31    53    1
    59    31    54    1
    60    31    55    1
    61    53    56    1
    62    53    57    1
    63    53    58    1
    64    51    59    1
    65    51    60    1
    66    51    61    1
    67    59    62    1
    68    59    63    1
    69    59    64    1
    70    52    65    1
    71    52    66    1
    72    52    67    1
    73    65    68    1
    74    65    69    1
    75    65    70    1
    76    69    71    1
    77    69    72    1
    78    69    73    1
    79    72    74    1
    80    72    75    1
    81    72    76    1
    82    76    77    1
    83    76    78    1
    84    76    79    1
    85    79    80    1
    86    79    81    1
    87    79    82    1
    88    81    83    1
    89    81    84    1
    90    81    85    1
    91    86    87   ar
    92    86    88   ar
    93    86    89    1
    94    89    90    1
    95    89    91    1
    96    89    92    1
    97    90    93    1
    98    90    94    1
    99    90    95    1
   100    93    85    1
   101    93    96    1
   102    93    97    1
   103    85    98    1
   104    85    99    1
