@<TRIPOS>MOLECULE
*****
 97 102 0 0 0
SMALL
GASTEIGER

@<TRIPOS>ATOM
      1 C1          0.3887    0.6122    0.9117 C.3     1  COR        0.0050
      2 C2          0.7213   -0.4944   -0.0939 C.3     1  COR       -0.0082
      3 C3          0.3656   -0.1004   -1.5397 C.3     1  COR       -0.0576
      4 C4          3.1119    0.2213   -0.5066 C.ar    1  COR        0.0037
      5 S1          1.4716    2.0881    0.8673 S.3     1  COR       -0.1205
      6 H          -0.7225    0.1108   -1.6169 H       1  COR        0.0236
      7 H           0.9084    0.8049   -1.8802 H       1  COR        0.0236
      8 H           0.6063   -0.9385   -2.2282 H       1  COR        0.0236
      9 C5          2.1932   -0.8325    0.0583 C.2     1  COR       -0.0265
     10 C6          2.6668   -2.0287    0.6016 C.2     1  COR       -0.0043
     11 C7          4.1417   -2.2614    0.8372 C.ar    1  COR        0.0003
     12 C8          1.7937   -3.1594    1.0936 C.ar    1  COR        0.0003
     13 C9          2.8847    1.5828   -0.1672 C.ar    1  COR        0.0576
     14 C10         4.1496   -0.0982   -1.4479 C.ar    1  COR       -0.0092
     15 C11         3.7560    2.5885   -0.6669 C.ar    1  COR        0.1350
     16 H          -0.6660    0.9289    0.7664 H       1  COR        0.0386
     17 H           0.4936    0.2118    1.9396 H       1  COR        0.0386
     18 H           0.0574   -1.3491    0.1004 H       1  COR        0.0355
     19 C12         4.9911    0.9324   -1.9347 C.ar    1  COR       -0.0138
     20 C13         4.7920    2.2476   -1.5297 C.ar    1  COR       -0.0111
     21 O1          3.6203    3.9047   -0.3575 O.3     1  COR       -0.4911
     22 H           5.4373    3.0331   -1.9082 H       1  COR        0.0660
     23 C14         4.3362   -1.4037   -1.9675 C.ar    1  COR       -0.0534
     24 H           3.6907   -2.2205   -1.6958 H       1  COR        0.0624
     25 C15         5.3566   -1.6767   -2.8795 C.ar    1  COR       -0.0611
     26 C16         6.2025   -0.6604   -3.3103 C.ar    1  COR       -0.0612
     27 H           5.4853   -2.6823   -3.2589 H       1  COR        0.0618
     28 C17         6.0180    0.6402   -2.8491 C.ar    1  COR       -0.0539
     29 H           6.6683    1.4256   -3.2165 H       1  COR        0.0624
     30 H           6.9902   -0.8773   -4.0202 H       1  COR        0.0618
     31 C18         3.4803    4.4206    0.9179 C.3     1  COR        0.0868
     32 C19         0.6185   -2.9592    1.8494 C.ar    1  COR       -0.0527
     33 C20         2.2095   -4.4844    0.8528 C.ar    1  COR        0.0622
     34 S2          3.6779   -4.8099   -0.1198 S.3     1  COR       -0.0809
     35 C21         4.7157   -3.5399    0.6217 C.ar    1  COR        0.0622
     36 C22         4.9462   -1.2239    1.3469 C.ar    1  COR       -0.0527
     37 C23         6.1034   -3.7534    0.9133 C.ar    1  COR        0.1347
     38 C24        -0.1393   -4.0447    2.2946 C.ar    1  COR       -0.0577
     39 C25         0.2603   -5.3486    2.0096 C.ar    1  COR       -0.0188
     40 C26         1.4453   -5.5767    1.2917 C.ar    1  COR        0.1348
     41 H          -1.0402   -3.8721    2.8696 H       1  COR        0.0619
     42 H          -0.3466   -6.1711    2.3618 H       1  COR        0.0654
     43 H           0.2892   -1.9745    2.1250 H       1  COR        0.0624
     44 O2          1.8794   -6.8272    0.9891 O.3     1  COR       -0.4908
     45 C27         6.2892   -1.4373    1.6242 C.ar    1  COR       -0.0577
     46 C28         6.8582   -2.6858    1.4114 C.ar    1  COR       -0.0188
     47 H           4.5298   -0.2492    1.5582 H       1  COR        0.0624
     48 H           6.8929   -0.6300    2.0186 H       1  COR        0.0619
     49 H           7.9075   -2.8313    1.6376 H       1  COR        0.0654
     50 O3          6.7762   -4.9301    0.7441 O.3     1  COR       -0.4911
     51 C29         6.3235   -6.1536    0.2979 C.3     1  COR        0.0868
     52 C30         1.1191   -7.9778    0.9790 C.3     1  COR        0.0896
     53 C999        4.5738    5.4496    1.1616 C.3     1  DUM       -0.0307
     54 H           2.4904    4.9160    1.0069 H       1  COR        0.0694
     55 H           3.5753    3.6301    1.6946 H       1  COR        0.0694
     56 H999        4.5011    6.2675    0.4134 H       1  DUM        0.0262
     57 H998        4.4650    5.8811    2.1788 H       1  DUM        0.0262
     58 H997        5.5723    4.9695    1.0784 H       1  DUM        0.0262
     59 C998        7.4682   -7.1543    0.3335 C.3     1  DUM       -0.0307
     60 H           5.5173   -6.5284    0.9649 H       1  COR        0.0694
     61 H           5.9730   -6.0721   -0.7528 H       1  COR        0.0694
     62 H996        8.2957   -6.8109   -0.3231 H       1  DUM        0.0262
     63 H995        7.1123   -8.1439   -0.0232 H       1  DUM        0.0262
     64 H994        7.8482   -7.2618    1.3718 H       1  DUM        0.0262
     65 C           2.0281   -9.1358    0.5570 C.3     1  LLG       -0.0186
     66 H           0.6908   -8.1898    1.9823 H       1  COR        0.0696
     67 H           0.3000   -7.8355    0.2452 H       1  COR        0.0696
     68 H           2.7951   -9.2720    1.3509 H       1  LLG        0.0298
     69 C           1.3014  -10.4711    0.3305 C.3     1  LLG       -0.0500
     70 H           2.5586   -8.8660   -0.3833 H       1  LLG        0.0298
     71 H           0.7482  -10.7765    1.2449 H       1  LLG        0.0266
     72 C           0.3565  -10.4158   -0.8858 C.3     1  LLG       -0.0530
     73 H           2.0954  -11.2202    0.1343 H       1  LLG        0.0266
     74 H          -0.4639   -9.6976   -0.6820 H       1  LLG        0.0265
     75 H           0.9202  -10.0558   -1.7747 H       1  LLG        0.0265
     76 C          -0.2929  -11.7621   -1.2434 C.3     1  LLG       -0.0531
     77 H          -0.8987  -12.1355   -0.3893 H       1  LLG        0.0265
     78 H          -0.9783  -11.5705   -2.0985 H       1  LLG        0.0265
     79 C           0.7283  -12.8278   -1.6741 C.3     1  LLG       -0.0531
     80 H           1.3740  -13.1046   -0.8145 H       1  LLG        0.0265
     81 C           0.0267  -14.0862   -2.1977 C.3     1  LLG       -0.0530
     82 H           1.3654  -12.4150   -2.4874 H       1  LLG        0.0265
     83 H          -0.6317  -14.4908   -1.4006 H       1  LLG        0.0265
     84 H          -0.5958  -13.8093   -3.0770 H       1  LLG        0.0265
     85 C           1.0538  -15.1479   -2.6221 C.3     1  LLG       -0.0526
     86 C          -1.0993  -18.3998   -3.0070 C.2     1  LLG        0.3047
     87 O          -1.9505  -19.1887   -2.3186 O.3     1  LLG       -0.4806
     88 H          -2.2055  -18.9769   -1.4097 H       1  LLG        0.2951
     89 O          -0.8057  -18.6967   -4.1553 O.2     1  LLG       -0.2510
     90 C          -0.5251  -17.1634   -2.3559 C.3     1  LLG        0.0448
     91 H           0.0326  -17.4731   -1.4462 H       1  LLG        0.0377
     92 C           0.4181  -16.3805   -3.2856 C.3     1  LLG       -0.0430
     93 H          -1.3769  -16.5198   -2.0552 H       1  LLG        0.0377
     94 H           1.2449  -17.0547   -3.6007 H       1  LLG        0.0270
     95 H          -0.1360  -16.0596   -4.1952 H       1  LLG        0.0270
     96 H           1.7450  -14.6952   -3.3669 H       1  LLG        0.0265
     97 H           1.6538  -15.4629   -1.7402 H       1  LLG        0.0265
@<TRIPOS>BOND
     1     1     2    1
     2     1     5    1
     3     1    16    1
     4     1    17    1
     5     2     3    1
     6     2     9    1
     7     2    18    1
     8     3     6    1
     9     3     7    1
    10     3     8    1
    11     4     9    1
    12     4    13   ar
    13     4    14   ar
    14     5    13    1
    15     9    10    2
    16    10    11    1
    17    10    12    1
    18    11    35   ar
    19    11    36   ar
    20    12    32   ar
    21    12    33   ar
    22    13    15   ar
    23    14    19   ar
    24    14    23   ar
    25    15    20   ar
    26    15    21    1
    27    19    20   ar
    28    19    28   ar
    29    20    22    1
    30    21    31    1
    31    23    24    1
    32    23    25   ar
    33    25    26   ar
    34    25    27    1
    35    26    28   ar
    36    26    30    1
    37    28    29    1
    38    32    38   ar
    39    32    43    1
    40    33    34    1
    41    33    40   ar
    42    34    35    1
    43    35    37   ar
    44    36    45   ar
    45    36    47    1
    46    37    46   ar
    47    37    50    1
    48    38    39   ar
    49    38    41    1
    50    39    40   ar
    51    39    42    1
    52    40    44    1
    53    44    52    1
    54    45    46   ar
    55    45    48    1
    56    46    49    1
    57    50    51    1
    58    31    53    1
    59    31    54    1
    60    31    55    1
    61    53    56    1
    62    53    57    1
    63    53    58    1
    64    51    59    1
    65    51    60    1
    66    51    61    1
    67    59    62    1
    68    59    63    1
    69    59    64    1
    70    52    65    1
    71    52    66    1
    72    52    67    1
    73    65    68    1
    74    65    69    1
    75    65    70    1
    76    69    71    1
    77    69    72    1
    78    69    73    1
    79    72    74    1
    80    72    75    1
    81    72    76    1
    82    76    77    1
    83    76    78    1
    84    76    79    1
    85    79    80    1
    86    79    81    1
    87    79    82    1
    88    81    83    1
    89    81    84    1
    90    81    85    1
    91    86    87    1
    92    87    88    1
    93    86    89    2
    94    86    90    1
    95    90    91    1
    96    90    92    1
    97    90    93    1
    98    92    85    1
    99    92    94    1
   100    92    95    1
   101    85    96    1
   102    85    97    1
