@<TRIPOS>MOLECULE
*****
 90 95 0 0 0
SMALL
GASTEIGER

@<TRIPOS>ATOM
      1 C1          0.4056    0.6340    0.9036 C.3     1  COR      0.0050
      2 C2          0.7534   -0.4717   -0.0979 C.3     1  COR     -0.0082
      3 C3          0.4004   -0.0811   -1.5461 C.3     1  COR     -0.0576
      4 C4          3.1405    0.2706   -0.4994 C.ar    1  COR      0.0037
      5 S1          1.4704    2.1229    0.8600 S.3     1  COR     -0.1205
      6 H          -0.6890    0.1210   -1.6293 H       1  COR      0.0236
      7 H           0.9366    0.8291   -1.8850 H       1  COR      0.0236
      8 H           0.6520   -0.9165   -2.2339 H       1  COR      0.0236
      9 C5          2.2275   -0.7971    0.0580 C.2     1  COR     -0.0265
     10 C6          2.7096   -1.9951    0.5971 C.2     1  COR     -0.0043
     11 C7          4.1839   -2.2121    0.8375 C.ar    1  COR      0.0003
     12 C8          1.8482   -3.1439    1.0829 C.ar    1  COR      0.0003
     13 C9          2.8982    1.6311   -0.1595 C.ar    1  COR      0.0576
     14 C10         4.1898   -0.0348   -1.4327 C.ar    1  COR     -0.0092
     15 C11         3.7671    2.6459   -0.6481 C.ar    1  COR      0.1350
     16 H          -0.6516    0.9402    0.7518 H       1  COR      0.0386
     17 H           0.5093    0.2360    1.9325 H       1  COR      0.0386
     18 H           0.0984   -1.3330    0.1001 H       1  COR      0.0355
     19 C12         5.0280    1.0040   -1.9079 C.ar    1  COR     -0.0138
     20 C13         4.8145    2.3164   -1.5009 C.ar    1  COR     -0.0111
     21 O1          3.6194    3.9613   -0.3367 O.3     1  COR     -0.4911
     22 H           5.4577    3.1080   -1.8705 H       1  COR      0.0660
     23 C14         4.3919   -1.3366   -1.9560 C.ar    1  COR     -0.0534
     24 H           3.7495   -2.1588   -1.6945 H       1  COR      0.0624
     25 C15         5.4238   -1.5980   -2.8580 C.ar    1  COR     -0.0611
     26 C16         6.2666   -0.5740   -3.2759 C.ar    1  COR     -0.0612
     27 H           5.5641   -2.6013   -3.2396 H       1  COR      0.0618
     28 C17         6.0669    0.7236   -2.8124 C.ar    1  COR     -0.0539
     29 H           6.7151    1.5151   -3.1703 H       1  COR      0.0624
     30 H           7.0637   -0.7823   -3.9779 H       1  COR      0.0618
     31 C18         3.4570    4.4741    0.9373 C.3     1  COR      0.0868
     32 C19         0.6788   -2.9583    1.8474 C.ar    1  COR     -0.0527
     33 C20         2.2727   -4.4690    0.8282 C.ar    1  COR      0.0622
     34 S2          3.7453   -4.7614   -0.1435 S.3     1  COR     -0.0809
     35 C21         4.7693   -3.4844    0.6182 C.ar    1  COR      0.0622
     36 C22         4.9767   -1.1681    1.3551 C.ar    1  COR     -0.0527
     37 C23         6.1568   -3.6859    0.9192 C.ar    1  COR      0.1347
     38 C24        -0.0640   -4.0545    2.2947 C.ar    1  COR     -0.0577
     39 C25         0.3387   -5.3583    1.9933 C.ar    1  COR     -0.0188
     40 C26         1.5146   -5.5797    1.2563 C.ar    1  COR      0.1348
     41 H          -0.9586   -3.8892    2.8824 H       1  COR      0.0619
     42 H          -0.2607   -6.1855    2.3463 H       1  COR      0.0654
     43 H           0.3459   -1.9748    2.1306 H       1  COR      0.0624
     44 O2          1.9422   -6.8358    0.9225 O.3     1  COR     -0.4908
     45 C27         6.3202   -1.3699    1.6379 C.ar    1  COR     -0.0577
     46 C28         6.9003   -2.6132    1.4251 C.ar    1  COR     -0.0188
     47 H           4.5513   -0.1971    1.5678 H       1  COR      0.0624
     48 H           6.9152   -0.5582    2.0375 H       1  COR      0.0619
     49 H           7.9494   -2.7503    1.6573 H       1  COR      0.0654
     50 O3          6.8385   -4.8570    0.7525 O.3     1  COR     -0.4911
     51 C29         6.3901   -6.0813    0.3056 C.3     1  COR      0.0868
     52 C30         1.1899   -8.0052    0.9173 C.3     1  COR      0.0896
     53 C999        4.5428    5.5065    1.2032 C.3     1  DUM     -0.0307
     54 H           2.4641    4.9661    1.0109 H       1  COR      0.0694
     55 H           3.5426    3.6825    1.7136 H       1  COR      0.0694
     56 H999        4.4807    6.3274    0.4573 H       1  DUM      0.0262
     57 H998        4.4148    5.9338    2.2200 H       1  DUM      0.0262
     58 H997        5.5444    5.0304    1.1362 H       1  DUM      0.0262
     59 C998        7.5336   -7.0810    0.3486 C.3     1  DUM     -0.0307
     60 H           5.5806   -6.4556    0.9692 H       1  COR      0.0694
     61 H           6.0461   -6.0008   -0.7472 H       1  COR      0.0694
     62 H996        8.3642   -6.7375   -0.3037 H       1  DUM      0.0262
     63 H995        7.1778   -8.0700   -0.0101 H       1  DUM      0.0262
     64 H994        7.9064   -7.1879    1.3894 H       1  DUM      0.0262
     65 C           2.0806   -9.1707    0.4235 C.3     1  LLG     -0.0186
     66 H           0.8076   -8.2334    1.9365 H       1  COR      0.0696
     67 H           0.3354   -7.8619    0.2256 H       1  COR      0.0696
     68 H           2.8829   -9.3043    1.1831 H       1  LLG      0.0298
     69 C           1.3783  -10.5442    0.2035 C.3     1  LLG     -0.0500
     70 H           2.5690   -8.8752   -0.5301 H       1  LLG      0.0298
     71 H           0.8612  -10.8495    1.1387 H       1  LLG      0.0266
     72 C           0.3928  -10.5486   -0.9895 C.3     1  LLG     -0.0530
     73 H           2.1727  -11.2899   -0.0133 H       1  LLG      0.0266
     74 H          -0.3977   -9.8036   -0.7627 H       1  LLG      0.0265
     75 H           0.9201  -10.2194   -1.9112 H       1  LLG      0.0265
     76 C          -0.3342  -11.8961   -1.2780 C.3     1  LLG     -0.0530
     77 H          -0.8575  -12.2313   -0.3574 H       1  LLG      0.0265
     78 H          -1.1063  -11.6746   -2.0475 H       1  LLG      0.0265
     79 C           0.5297  -13.0537   -1.8450 C.3     1  LLG     -0.0526
     80 H           1.3103  -13.3365   -1.1082 H       1  LLG      0.0265
     81 C          -0.3364  -14.3041   -2.1704 C.3     1  LLG     -0.0428
     82 H           1.0256  -12.7129   -2.7800 H       1  LLG      0.0265
     83 H          -0.8250  -14.6542   -1.2353 H       1  LLG      0.0270
     84 H          -1.1329  -14.0308   -2.8991 H       1  LLG      0.0270
     85 C           0.4879  -15.4682   -2.7689 C.3     1  LLG      0.0492
     86 C          -0.3484  -16.6911   -2.9954 C.2     1  LLG      0.3560
     87 O          -0.3731  -17.3344   -1.9869 O.co2   1  LLG     -0.2464
     88 O          -0.8007  -16.6709   -4.1091 O.co2   1  LLG     -0.2464
     89 H           1.3305  -15.7155   -2.0838 H       1  LLG       0.0379
     90 H           0.9539  -15.1380   -3.7264 H       1  LLG       0.0379
@<TRIPOS>BOND
     1     1     2    1
     2     1     5    1
     3     1    16    1
     4     1    17    1
     5     2     3    1
     6     2     9    1
     7     2    18    1
     8     3     6    1
     9     3     7    1
    10     3     8    1
    11     4     9    1
    12     4    13   ar
    13     4    14   ar
    14     5    13    1
    15     9    10    2
    16    10    11    1
    17    10    12    1
    18    11    35   ar
    19    11    36   ar
    20    12    32   ar
    21    12    33   ar
    22    13    15   ar
    23    14    19   ar
    24    14    23   ar
    25    15    20   ar
    26    15    21    1
    27    19    20   ar
    28    19    28   ar
    29    20    22    1
    30    21    31    1
    31    23    24    1
    32    23    25   ar
    33    25    26   ar
    34    25    27    1
    35    26    28   ar
    36    26    30    1
    37    28    29    1
    38    32    38   ar
    39    32    43    1
    40    33    34    1
    41    33    40   ar
    42    34    35    1
    43    35    37   ar
    44    36    45   ar
    45    36    47    1
    46    37    46   ar
    47    37    50    1
    48    38    39   ar
    49    38    41    1
    50    39    40   ar
    51    39    42    1
    52    40    44    1
    53    44    52    1
    54    45    46   ar
    55    45    48    1
    56    46    49    1
    57    50    51    1
    58    31    53    1
    59    31    54    1
    60    31    55    1
    61    53    56    1
    62    53    57    1
    63    53    58    1
    64    51    59    1
    65    51    60    1
    66    51    61    1
    67    59    62    1
    68    59    63    1
    69    59    64    1
    70    52    65    1
    71    52    66    1
    72    52    67    1
    73    65    68    1
    74    65    69    1
    75    65    70    1
    76    69    71    1
    77    69    72    1
    78    69    73    1
    79    72    74    1
    80    72    75    1
    81    72    76    1
    82    76    77    1
    83    76    78    1
    84    76    79    1
    85    79    80    1
    86    79    81    1
    87    79    82    1
    88    81    83    1
    89    81    84    1
    90    81    85    1
    91    86    87   ar
    92    86    88   ar
    93    85    86    1
    94    85    89    1
    95    85    90    1
