@<TRIPOS>MOLECULE
HEAD
 38 37 0 0 0
SMALL
GASTEIGER

@<TRIPOS>ATOM
      1 C301       -3.8447    5.7973    1.6386 C.3     1  HED       -0.0559
      2 C302       -2.6968    6.6818    1.1503 C.3     1  HED       -0.0533
      3 H          -2.3756    6.3121    0.1505 H       1  HED        0.0265
      4 H          -1.8404    6.5861    1.8550 H       1  HED        0.0265
      5 C303       -3.0805    8.1660    1.0217 C.3     1  HED       -0.0531
      6 H          -3.9330    8.2663    0.3134 H       1  HED        0.0265
      7 C304       -1.8710    8.9367    0.4803 C.3     1  HED       -0.0531
      8 H          -3.3862    8.5735    2.0112 H       1  HED        0.0265
      9 H          -1.5934    8.4511   -0.4752 H       1  HED        0.0265
     10 H          -1.0288    8.8342    1.2005 H       1  HED        0.0265
     11 C305       -2.1285   10.4332    0.2281 C.3     1  HED       -0.0531
     12 H          -2.9511   10.5589   -0.5103 H       1  HED        0.0265
     13 C306       -0.8595   11.1646   -0.2703 C.3     1  HED       -0.0531
     14 H          -2.4471   10.9043    1.1847 H       1  HED        0.0265
     15 C307       -0.3487   10.6375   -1.6296 C.3     1  HED       -0.0531
     16 H          -0.0611   11.0468    0.4952 H       1  HED        0.0265
     17 H          -1.0902   12.2470   -0.3650 H       1  HED        0.0265
     18 H          -0.1493    9.5527   -1.5500 H       1  HED        0.0265
     19 C308        0.9901   11.2347   -2.0813 C.3     1  HED       -0.0531
     20 H          -1.1237   10.7940   -2.4116 H       1  HED        0.0265
     21 H           1.7603   11.0419   -1.3014 H       1  HED        0.0265
     22 C309        0.9497   12.7307   -2.4146 C.3     1  HED       -0.0533
     23 H           1.2921   10.6892   -3.0034 H       1  HED        0.0265
     24 H           0.6929   13.3181   -1.5071 H       1  HED        0.0265
     25 H           0.1765   12.9101   -3.1938 H       1  HED        0.0265
     26 C310        2.3184   13.1792   -2.9486 C.3     1  HED       -0.0559
     27 H           3.0986   13.0027   -2.1756 H       1  HED        0.0263
     28 C311        2.3256   14.6557   -3.3271 C.3     1  HED       -0.0653
     29 H           2.5779   12.5852   -3.8532 H       1  HED        0.0263
     30 H           2.0999   15.2832   -2.4397 H       1  HED        0.0230
     31 H           1.5743   14.8534   -4.1210 H       1  HED        0.0230
     32 H           3.3298   14.9320   -3.7137 H       1  HED        0.0230
     33 C989          -3.3982    4.3353    1.6889 C.3     1  DUM       -0.0653
     34 H          -4.7079    5.8827    0.9430 H       1  HED        0.0263
     35 H          -4.1662    6.1187    2.6531 H       1  HED        0.0263
     36 H989          -3.0883    3.9923    0.6773 H       1  DUM        0.0230
     37 H988          -4.2326    3.6929    2.0377 H       1  DUM        0.0230
     38 H987          -2.5398    4.2151    2.3848 H       1  DUM        0.0230
@<TRIPOS>BOND
     1     1     2    1
     2     2     3    1
     3     2     4    1
     4     2     5    1
     5     5     6    1
     6     5     7    1
     7     5     8    1
     8     7     9    1
     9     7    10    1
    10     7    11    1
    11    11    12    1
    12    11    13    1
    13    11    14    1
    14    13    15    1
    15    13    16    1
    16    13    17    1
    17    15    18    1
    18    15    19    1
    19    15    20    1
    20    19    21    1
    21    19    22    1
    22    19    23    1
    23    22    24    1
    24    22    25    1
    25    22    26    1
    26    26    27    1
    27    26    28    1
    28    26    29    1
    29    28    30    1
    30    28    31    1
    31    28    32    1
    32     1    33    1
    33     1    34    1
    34     1    35    1
    35    33    36    1
    36    33    37    1
    37    33    38    1
