@<TRIPOS>MOLECULE
L-LEG
 35 34 0 0 0
SMALL
GASTEIGER

@<TRIPOS>ATOM
      1 C101       -2.3496   -8.9724    0.0363 C.3     1  LLG       -0.0559
      2 C102       -1.8994  -10.4328   -0.0439 C.3     1  LLG       -0.0533
      3 H          -1.2099  -10.6429    0.8039 H       1  LLG        0.0265
      4 H          -1.3550  -10.5977   -0.9997 H       1  LLG        0.0265
      5 C103       -3.0871  -11.3933    0.0228 C.3     1  LLG       -0.0531
      6 H          -3.6438  -11.2278    0.9715 H       1  LLG        0.0265
      7 C104       -2.6007  -12.8449   -0.0336 C.3     1  LLG       -0.0531
      8 H          -3.7696  -11.1970   -0.8338 H       1  LLG        0.0265
      9 H          -1.9128  -13.0332    0.8207 H       1  LLG        0.0265
     10 H          -2.0445  -13.0133   -0.9827 H       1  LLG        0.0265
     11 C105       -3.7796  -13.8167    0.0462 C.3     1  LLG       -0.0531
     12 H          -4.3319  -13.6406    0.9956 H       1  LLG        0.0265
     13 C106       -3.2952  -15.2689    0.0069 C.3     1  LLG       -0.0530
     14 H          -4.4664  -13.6328   -0.8093 H       1  LLG        0.0265
     15 H          -2.6023  -15.4476    0.8590 H       1  LLG        0.0265
     16 H          -2.7467  -15.4489   -0.9441 H       1  LLG        0.0265
     17 C107       -4.4767  -16.2389    0.1062 C.3     1  LLG       -0.0526
     18 H          -5.0220  -16.0549    1.0584 H       1  LLG        0.0265
     19 C108       -3.9935  -17.6923    0.0726 C.3     1  LLG       -0.0430
     20 H          -5.1715  -16.0611   -0.7443 H       1  LLG        0.0265
     21 H          -3.2969  -17.8652    0.9228 H       1  LLG        0.0270
     22 H          -3.4513  -17.8748   -0.8816 H       1  LLG        0.0270
     23 C109       -5.1741  -18.6680    0.1805 C.3     1  LLG        0.0448
     24 H          -5.7153  -18.4822    1.1334 H       1  LLG        0.0377
     25 C110       -4.7472  -20.1166    0.1521 C.2     1  LLG        0.3047
     26 H          -5.8723  -18.4925   -0.6662 H       1  LLG        0.0377
     27 O101       -5.6759  -21.0921    0.2400 O.3     1  LLG       -0.4806
     28 H          -6.6164  -20.8825    0.3220 H       1  LLG        0.2951
     29 O102       -3.5691  -20.4199    0.0505 O.2     1  LLG       -0.2510
     30 C979          -1.1413   -8.0483   -0.0721 C.3     1  DUM       -0.0653
     31 H          -2.8661   -8.7913    1.0049 H       1  LLG        0.0263
     32 H          -3.0562   -8.7437   -0.7915 H       1  LLG        0.0263
     33 H979          -0.4208   -8.2630    0.7461 H       1  DUM        0.0230
     34 H978          -1.4637   -6.9894    0.0015 H       1  DUM        0.0230
     35 H976          -0.6352   -8.2017   -1.0495 H       1  DUM        0.0230
@<TRIPOS>BOND
     1     1     2    1
     2     2     3    1
     3     2     4    1
     4     2     5    1
     5     5     6    1
     6     5     7    1
     7     5     8    1
     8     7     9    1
     9     7    10    1
    10     7    11    1
    11    11    12    1
    12    11    13    1
    13    11    14    1
    14    13    15    1
    15    13    16    1
    16    13    17    1
    17    17    18    1
    18    17    19    1
    19    17    20    1
    20    19    21    1
    21    19    22    1
    22    19    23    1
    23    23    24    1
    24    23    25    1
    25    23    26    1
    26    25    27    1
    27    25    29    2
    28    27    28    1
    29     1    30    1
    30     1    31    1
    31     1    32    1
    32    30    33    1
    33    30    34    1
    34    30    35    1
