@<TRIPOS>MOLECULE
MM2
 49 54 0 0 0
SMALL
GASTEIGER

@<TRIPOS>ATOM
      1 C          55.9234   45.8437   21.9646 C.ar    2  OR2        -0.0471
      2 C          55.4036   44.8597   21.1370 C.ar    2  OR2        -0.0530
      3 C          54.0836   44.9369   20.6945 C.ar    2  OR2        -0.0172
      4 C          53.2726   46.0470   21.0568 C.ar    2  OR2        -0.0094
      5 C          51.9120   46.0269   20.6641 C.ar    2  OR2        -0.0534
      6 H          51.2253   46.8006   20.9626 H       2  OR2         0.0624
      7 C          51.4030   44.9822   19.8905 C.ar    2  OR2        -0.0611
      8 C          52.2248   43.9277   19.5046 C.ar    2  OR2        -0.0612
      9 C17        53.5566   43.8976   19.9104 C.ar    2  COR2       -0.0540
     10 H10        54.1754   43.0548   19.6251 H       2  COR2        0.0624
     11 H11        51.8230   43.1200   18.9065 H       2  COR2        0.0618
     12 H8         50.3618   44.9891   19.5947 H       2  COR2        0.0618
     13 H6         56.0250   44.0125   20.8707 H       2  COR2        0.0624
     14 C9         55.1613   46.9541   22.3352 C.ar    2  COR2        0.0159
     15 S1         55.9661   48.1407   23.4405 S.3     2  COR2       -0.1240
     16 C1         54.5817   49.1947   24.0089 C.3     2  COR2        0.0049
     17 C2         53.1683   48.6695   23.7205 C.3     2  COR2       -0.0082
     18 C3         52.8062   47.4541   24.5949 C.3     2  COR2       -0.0576
     19 H          52.8548   47.7328   25.6693 H       2  COR2        0.0236
     20 H1         53.4922   46.5968   24.4392 H       2  COR2        0.0236
     21 H2         51.7698   47.1230   24.3691 H       2  COR2        0.0236
     22 H5         52.4431   49.4298   24.0455 H       2  COR2        0.0355
     23 H3         54.6847   49.3690   25.1011 H       2  COR2        0.0385
     24 H4         54.7288   50.1603   23.4873 H       2  COR2        0.0385
     25 C4         53.8394   47.1100   21.8432 C.ar    2  COR2        0.0001
     26 C5         53.0700   48.3483   22.2371 C.2     2  COR2       -0.0267
     27 C6         52.3030   49.0907   21.3330 C.2     2  COR2       -0.0046
     28 C8         51.4785   50.3098   21.6904 C.ar    2  COR2       -0.0033
     29 C19        51.9390   51.3131   22.5740 C.ar    2  COR2       -0.0529
     30 C24        51.1722   52.4520   22.8310 C.ar    2  COR2       -0.0611
     31 C25        49.9425   52.6257   22.2037 C.ar    2  COR2       -0.0607
     32 C26        49.4802   51.6671   21.3062 C.ar    2  COR2       -0.0474
     33 C20        50.2402   50.5221   21.0377 C.ar    2  COR2        0.0205
     34 S2         49.5746   49.3182   19.8901 S.3     2  COR2       -0.0882
     35 H          48.5261   51.8132   20.8155 H       2  OR2         0.0629
     36 H          49.3521   53.5105   22.4037 H       2  OR2         0.0618
     37 H          51.5416   53.2092   23.5107 H       2  OR2         0.0618
     38 H          52.9010   51.2505   23.0437 H       2  OR2         0.0624
     39 C          52.3180   48.8046   19.8525 C.ar    2  OR2        -0.0033
     40 C          53.5127   48.4571   19.1827 C.ar    2  OR2        -0.0529
     41 C          53.5165   48.2385   17.8034 C.ar    2  OR2        -0.0611
     42 C          52.3382   48.3685   17.0701 C.ar    2  OR2        -0.0607
     43 H          52.3443   48.1966   16.0015 H       2  OR2         0.0618
     44 H          54.4383   47.9742   17.3013 H       2  OR2         0.0618
     45 H          54.4481   48.3770   19.7177 H       2  OR2         0.0624
     46 C          51.1364   48.9453   19.0947 C.ar    2  OR2         0.0205
     47 C          51.1516   48.7203   17.7131 C.ar    2  OR2        -0.0474
     48 H          50.2390   48.8105   17.1378 H       1  LIG1        0.0629
     49 H          56.9393   45.7426   22.3259 H       1  LIG1        0.0629
@<TRIPOS>BOND
     1    43    42    1
     2    42    47   ar
     3    42    41   ar
     4    44    41    1
     5    47    46   ar
     6    41    40   ar
     7    46    39   ar
     8    46    34    1
     9    11     8    1
    10    40    45    1
    11    40    39   ar
    12     8     9   ar
    13     8     7   ar
    14    10     9    1
    15    12     7    1
    16    39    27    1
    17    34    33    1
    18     9     3   ar
    19     7     5   ar
    20     3     4   ar
    21     3     2   ar
    22     5     6    1
    23     5     4   ar
    24    13     2    1
    25    35    32    1
    26    33    32   ar
    27    33    28   ar
    28     4    25   ar
    29     2     1   ar
    30    27    28    1
    31    27    26    2
    32    32    31   ar
    33    28    29   ar
    34    25    26    1
    35    25    14   ar
    36     1    14   ar
    37    26    17    1
    38    31    36    1
    39    31    30   ar
    40    14    15    1
    41    29    30   ar
    42    29    38    1
    43    30    37    1
    44    15    16    1
    45    24    16    1
    46    17    16    1
    47    17    22    1
    48    17    18    1
    49    16    23    1
    50    21    18    1
    51    20    18    1
    52    18    19    1
    53    47    48    1
    54     1    49    1
