@<TRIPOS>MOLECULE
motor11B-R
 158 163 0 0 0
SMALL
GASTEIGER

@<TRIPOS>ATOM
      1 C302       30.4981   40.1016   27.0243 C.3     1  HED       -0.0500
      2 H          30.3311   41.0688   27.5448 H       1  HED        0.0266
      3 H1         29.5881   39.4728   27.1401 H       1  HED        0.0266
      4 C303       30.7216   40.3232   25.5030 C.3     1  HED       -0.0530
      5 H2         31.6334   40.9380   25.3408 H       1  HED        0.0265
      6 C304       29.5155   41.0210   24.8427 C.3     1  HED       -0.0531
      7 H4         29.3960   42.0164   25.3228 H       1  HED        0.0265
      8 H5         28.5907   40.4346   25.0365 H       1  HED        0.0265
      9 C305       29.6402   41.2454   23.3145 C.3     1  HED       -0.0531
     10 H6         28.7525   41.8416   23.0080 H       1  HED        0.0265
     11 C306       29.6256   39.9410   22.4878 C.3     1  HED       -0.0531
     12 C307       29.4842   40.1683   20.9639 C.3     1  HED       -0.0531
     13 H11        29.3712   39.1691   20.4934 H       1  HED        0.0265
     14 C308       30.6825   40.8857   20.3157 C.3     1  HED       -0.0531
     15 H13        30.8107   41.8772   20.7973 H       1  HED        0.0265
     16 C309       30.5000   41.1434   18.8039 C.3     1  HED       -0.0533
     17 H15        29.5923   41.7655   18.6417 H       1  HED        0.0265
     18 H16        31.3817   41.7250   18.4546 H       1  HED        0.0265
     19 C310       30.4057   39.8639   17.9551 C.3     1  HED       -0.0559
     20 H17        29.5101   39.2744   18.2403 H       1  HED        0.0263
     21 C311       30.2980   40.1956   16.4663 C.3     1  HED       -0.0653
     22 H19        29.3873   40.8000   16.2670 H       1  HED        0.0230
     23 H20        30.2341   39.2565   15.8762 H       1  HED        0.0230
     24 H21        31.1914   40.7630   16.1280 H       1  HED        0.0230
     25 H18        31.3133   39.2427   18.1152 H       1  HED        0.0263
     26 H14        31.6084   40.2933   20.4806 H       1  HED        0.0265
     27 H12        28.5552   40.7478   20.7679 H       1  HED        0.0265
     28 H8         28.7359   39.3513   22.7996 H       1  HED        0.0265
     29 H10        30.5332   39.3359   22.6946 H       1  HED        0.0265
     30 H7         30.5498   41.8421   23.0928 H       1  HED        0.0265
     31 H3         30.8711   39.3332   25.0212 H       1  HED        0.0265
     32 C301       31.6931   39.3648   27.6659 C.3     1  HED       -0.0186
     33 H22        32.6112   39.9892   27.6221 H       1  HED        0.0298
     34 H23        31.8709   38.4568   27.0470 H       1  HED        0.0298
     35 C18        31.4547   38.8421   29.1035 C.3     2  COR        0.0896
     36 H18        32.3066   38.1676   29.3412 H       2  COR        0.0696
     37 H19        30.5173   38.2432   29.0980 H       2  COR        0.0696
     38 O1         31.3989   39.8210   30.0967 O.3     2  COR       -0.4908
     39 C11        31.2099   39.5454   31.4381 C.ar    2  COR        0.1350
     40 C13        30.9780   38.2338   31.8821 C.ar    2  COR       -0.0111
     41 C12        30.7238   37.9577   33.2284 C.ar    2  COR       -0.0138
     42 C10        30.7199   38.9989   34.1953 C.ar    2  COR       -0.0092
     43 C14        30.3470   38.6727   35.5207 C.ar    2  COR       -0.0534
     44 H7         30.2615   39.4230   36.2860 H       2  COR        0.0624
     45 C15        30.0471   37.3566   35.8763 C.ar    2  COR       -0.0611
     46 C16        30.0969   36.3414   34.9261 C.ar    2  COR       -0.0612
     47 C17        30.4265   36.6382   33.6069 C.ar    2  COR       -0.0539
     48 H10        30.4295   35.8399   32.8734 H       2  COR        0.0624
     49 H11        29.8575   35.3241   35.2065 H       2  COR        0.0618
     50 H8         29.7652   37.1252   36.8951 H       2  COR        0.0618
     51 H6         30.9545   37.4150   31.1757 H       2  COR        0.0660
     52 C9         31.2346   40.5927   32.3909 C.ar    2  COR        0.0576
     53 S1         31.5869   42.2658   31.7806 S.3     2  COR       -0.1205
     54 C1         30.6128   43.3255   32.9191 C.3     2  COR        0.0050
     55 C2         29.9912   42.5669   34.1009 C.3     2  COR       -0.0082
     56 C3         29.0397   43.3984   34.9831 C.3     2  COR       -0.0576
     57 H          28.2349   43.8230   34.3427 H       2  COR        0.0236
     58 H1         29.4757   44.2767   35.4715 H       2  COR        0.0236
     59 H2         28.5585   42.7479   35.7435 H       2  COR        0.0236
     60 H5         29.2165   41.9203   33.6213 H       2  COR        0.0355
     61 H3         31.3064   44.1082   33.2653 H       2  COR        0.0386
     62 H4         29.8052   43.8195   32.3372 H       2  COR        0.0386
     63 C4         31.0234   40.3333   33.7897 C.ar    2  COR        0.0037
     64 C5         30.9593   41.5312   34.7259 C.2     2  COR       -0.0265
     65 C6         31.5786   41.6072   36.0047 C.2     2  COR       -0.0043
     66 C8         32.5133   40.5360   36.5674 C.ar    2  COR        0.0003
     67 C19        33.3865   39.8046   35.7394 C.ar    2  COR       -0.0527
     68 C24        34.3214   38.9198   36.2933 C.ar    2  COR       -0.0577
     69 C25        34.4233   38.7561   37.6806 C.ar    2  COR       -0.0188
     70 C26        33.5660   39.4617   38.5383 C.ar    2  COR        0.1348
     71 C20        32.6061   40.3338   37.9774 C.ar    2  COR        0.0622
     72 S2         31.4581   41.1412   39.0912 S.3     2  COR       -0.0809
     73 O2         33.6428   39.3568   39.9043 O.3     2  COR       -0.4908
     74 C30        34.6380   38.7493   40.6687 C.3     2  COR        0.0896
     75 C          34.3837   39.0782   42.1616 C.3     2  COR       -0.0186
     76 H24        34.2996   40.1862   42.2209 H       2  COR        0.0298
     77 C31        35.4947   38.6443   43.1657 C.3     2  COR       -0.0500
     78 H26        35.5951   37.5383   43.1988 H       2  COR        0.0266
     79 C32        35.1833   39.2180   44.5786 C.3     2  COR       -0.0530
     80 H28        34.2374   38.7917   44.9770 H       2  COR        0.0265
     81 H29        35.0220   40.3087   44.4316 H       2  COR        0.0265
     82 C33        36.3025   39.1343   45.6533 C.3     2  COR       -0.0531
     83 H30        36.0023   39.8189   46.4774 H       2  COR        0.0265
     84 H31        37.2461   39.5280   45.2164 H       2  COR        0.0265
     85 C34        36.5498   37.7623   46.3172 C.3     2  COR       -0.0531
     86 H32        35.6097   37.4107   46.7920 H       2  COR        0.0265
     87 C35        37.6777   37.8686   47.3889 C.3     2  COR       -0.0531
     88 H34        38.5834   38.2288   46.8538 H       2  COR        0.0265
     89 H35        37.4320   38.6145   48.1767 H       2  COR        0.0265
     90 C36        38.0532   36.5158   48.0378 C.3     2  COR       -0.0530
     91 C39        37.0511   35.9693   49.0809 C.3     2  COR       -0.0526
     92 C38        37.1810   36.5497   50.5126 C.3     2  COR       -0.0428
     93 C37        38.4976   36.4840   52.6719 C.2     2  COR        0.3560
     94 O          38.5715   35.6177   53.5304 O.co2   2  COR       -0.2464
     95 O4         38.4481   37.7789   53.0362 O.co2   2  COR       -0.2464
     96 H38        37.2171   34.8749   49.1822 H       2  COR        0.0265
     97 H39        36.0175   36.1040   48.7020 H       2  COR        0.0265
     98 H40        39.0530   36.5867   48.5127 H       2  COR        0.0265
     99 H41        38.1514   35.7838   47.2091 H       2  COR        0.0265
    100 H33        36.8526   37.0320   45.5368 H       2  COR        0.0265
    101 H27        36.4573   39.0789   42.8189 H       2  COR        0.0266
    102 H25        33.4096   38.6424   42.4723 H       2  COR        0.0298
    103 H22        35.6219   39.1796   40.3804 H       2  COR        0.0696
    104 H23        34.6512   37.6514   40.4991 H       2  COR        0.0696
    105 H13        35.1695   38.0821   38.0790 H       2  COR        0.0654
    106 H12        34.9924   38.3763   35.6406 H       2  COR        0.0619
    107 H14        33.3836   39.9417   34.6685 H       2  COR        0.0624
    108 C7         31.5531   42.8443   36.8966 C.ar    2  COR        0.0003
    109 C22        31.6892   44.1240   36.3418 C.ar    2  COR       -0.0527
    110 C27        31.7616   45.2601   37.1407 C.ar    2  COR       -0.0577
    111 C28        31.7572   45.1507   38.5250 C.ar    2  COR       -0.0188
    112 H17        31.8342   46.0597   39.1036 H       2  COR        0.0654
    113 H16        31.8498   46.2357   36.6797 H       2  COR        0.0619
    114 H15        31.7618   44.2535   35.2861 H       2  COR        0.0624
    115 C21        31.5808   42.7364   38.3181 C.ar    2  COR        0.0622
    116 C23        31.6920   43.8848   39.1433 C.ar    2  COR        0.1348
    117 O3         31.7772   43.7502   40.5134 O.3     2  COR       -0.4908
    118 C29        32.0005   44.8231   41.3741 C.3     2  COR        0.0896
    119 H20        31.1095   45.4879   41.4024 H       2  COR        0.0696
    120 H21        32.8632   45.4029   40.9774 H       2  COR        0.0696
    121 C201       32.4460   44.4439   42.8037 C.3     3  RLG       -0.0186
    122 H17        32.7400   45.4057   43.2801 H       3  RLG        0.0298
    123 H18        33.3496   43.7976   42.7580 H       3  RLG        0.0298
    124 C202       31.3891   43.8041   43.7218 C.3     3  RLG       -0.0500
    125 H          30.4712   44.4322   43.7099 H       3  RLG        0.0266
    126 C203       31.9153   43.7514   45.1843 C.3     3  RLG       -0.0530
    127 H2         32.1279   44.7916   45.5111 H       3  RLG        0.0265
    128 H3         32.8599   43.1665   45.2286 H       3  RLG        0.0265
    129 C204       30.8961   43.1218   46.1506 C.3     3  RLG       -0.0531
    130 H4         29.9208   43.6476   46.0544 H       3  RLG        0.0265
    131 C205       31.3065   43.1385   47.6488 C.3     3  RLG       -0.0531
    132 H6         30.5198   42.5648   48.1859 H       3  RLG        0.0265
    133 H7         32.2772   42.6219   47.8089 H       3  RLG        0.0265
    134 C206       31.3305   44.5587   48.2530 C.3     3  RLG       -0.0531
    135 H8         32.1683   45.1583   47.8380 H       3  RLG        0.0265
    136 C207       31.3522   44.5975   49.7977 C.3     3  RLG       -0.0530
    137 H11        30.5008   43.9964   50.1865 H       3  RLG        0.0265
    138 H12        31.1812   45.6558   50.0956 H       3  RLG        0.0265
    139 C208       32.6580   44.1446   50.4744 C.3     3  RLG       -0.0526
    140 H13        33.4913   44.7855   50.1124 H       3  RLG        0.0265
    141 C209       32.5248   44.3013   52.0048 C.3     3  RLG       -0.0428
    142 C210       33.6447   44.1418   54.2383 C.2     3  RLG        0.3560
    143 O201       33.3437   45.2319   54.6997 O.co2   3  RLG       -0.2464
    144 O202       33.8279   43.0959   55.0669 O.co2   3  RLG       -0.2464
    145 H14        32.8819   43.0854   50.2250 H       3  RLG        0.0265
    146 H10        30.3776   45.0523   47.9628 H       3  RLG        0.0265
    147 H5         30.7439   42.0654   45.8408 H       3  RLG        0.0265
    148 H1         31.1331   42.7888   43.3500 H       3  RLG        0.0266
    149 C          33.8224   43.9689   52.7530 C.3     1  RLG        0.0492
    150 H          34.6361   44.6458   52.4137 H       1  RLG        0.0379
    151 H          34.1187   42.9197   52.5390 H       1  RLG        0.0379
    152 H          32.2497   45.3540   52.2391 H       1  RLG        0.0270
    153 H          31.7118   43.6351   52.3709 H       1  RLG        0.0270
    154 C          38.4838   36.1034   51.2160 C.3     1  RLG        0.0492
    155 H          39.3731   36.5515   50.7292 H       1  RLG        0.0379
    156 H          38.5688   34.9953   51.1492 H       1  RLG        0.0379
    157 H          37.0849   37.6566   50.5146 H       1  RLG        0.0270
    158 H          36.3379   36.1304   51.1060 H       1  RLG        0.0270
@<TRIPOS>BOND
     1    34    32    1
     2    22    21    1
     3    23    21    1
     4    21    24    1
     5    21    19    1
     6    36    35    1
     7    33    32    1
     8    31     4    1
     9    17    16    1
    10    20    19    1
    11    32    35    1
    12    32     1    1
    13    13    12    1
    14    10     9    1
    15    35    37    1
    16    35    38    1
    17    19    16    1
    18    19    25    1
    19    16    18    1
    20    16    14    1
    21     3     1    1
    22     4     1    1
    23     4     5    1
    24     4     6    1
    25     1     2    1
    26    12    27    1
    27    12    14    1
    28    12    11    1
    29     9     6    1
    30     9    30    1
    31     9    11    1
    32    38    39    1
    33    26    14    1
    34     8     6    1
    35    14    15    1
    36     6     7    1
    37    11    28    1
    38    11    29    1
    39    53    52    1
    40    53    54    1
    41    39    40   ar
    42    39    52   ar
    43    51    40    1
    44    62    54    1
    45    40    41   ar
    46    52    63   ar
    47    54    61    1
    48    54    55    1
    49    60    55    1
    50    41    42   ar
    51    41    47   ar
    52    63    42   ar
    53    63    64    1
    54    55    64    1
    55    55    56    1
    56    48    47    1
    57   107    67    1
    58    42    43   ar
    59    57    56    1
    60    47    46   ar
    61    64    65    2
    62   114   109    1
    63    56    58    1
    64    56    59    1
    65   106    68    1
    66    67    68   ar
    67    67    66   ar
    68    65    66    1
    69    65   108    1
    70   109   108   ar
    71   109   110   ar
    72    43    44    1
    73    43    45   ar
    74    46    49    1
    75    46    45   ar
    76    68    69   ar
    77   113   110    1
    78    66    71   ar
    79   108   115   ar
    80   110   111   ar
    81    45    50    1
    82    69   105    1
    83    69    70   ar
    84    71    70   ar
    85    71    72    1
    86   115   116   ar
    87   115    72    1
    88   111   112    1
    89   111   116   ar
    90    70    73    1
    91   116   117    1
    92    73    74    1
    93   103    74    1
    94   117   118    1
    95   119   118    1
    96    74   104    1
    97    74    75    1
    98   120   118    1
    99   118   121    1
   100    78    77    1
   101   101    77    1
   102    75    77    1
   103    75    76    1
   104    75   102    1
   105    77    79    1
   106   148   124    1
   107   121   123    1
   108   121   124    1
   109   121   122    1
   110   125   124    1
   111    84    82    1
   112   124   126    1
   113    83    82    1
   114    82    79    1
   115    82    85    1
   116    79    80    1
   117    79    81    1
   118   130   129    1
   119   126   129    1
   120   126   128    1
   121   126   127    1
   122   147   129    1
   123   129   131    1
   124    85   100    1
   125    85    86    1
   126    85    87    1
   127   137   136    1
   128    89    87    1
   129    87    88    1
   130    87    90    1
   131   140   139    1
   132   131   132    1
   133   131   133    1
   134   131   134    1
   135   136   138    1
   136   136   134    1
   137   136   139    1
   138   146   134    1
   139   141   139    1
   140   134   135    1
   141   139   145    1
   142   143   142   ar
   143    90    98    1
   144    90    99    1
   145    90    91    1
   146   142   144   ar
   147    96    91    1
   148    91    97    1
   149    91    92    1
   150    94    93   ar
   151    93    95   ar
   152   142   149    1
   153   141   149    1
   154   149   150    1
   155   149   151    1
   156   141   152    1
   157   141   153    1
   158    93   154    1
   159    92   154    1
   160   154   155    1
   161   154   156    1
   162    92   157    1
   163    92   158    1
