@<TRIPOS>MOLECULE
motor8B-R
 140 145 0 0 0
SMALL
GASTEIGER

@<TRIPOS>ATOM
      1 C302       30.5060   40.1011   27.0578 C.3     1  HED       -0.0500
      2 H          30.3373   41.0666   27.5809 H       1  HED        0.0266
      3 H1         29.5969   39.4705   27.1718 H       1  HED        0.0266
      4 C303       30.7295   40.3269   25.5375 C.3     1  HED       -0.0530
      5 H2         31.6401   40.9438   25.3767 H       1  HED        0.0265
      6 C304       29.5220   41.0235   24.8787 C.3     1  HED       -0.0531
      7 H4         29.4010   42.0184   25.3595 H       1  HED        0.0265
      8 H5         28.5983   40.4353   25.0724 H       1  HED        0.0265
      9 C305       29.6460   41.2481   23.3507 C.3     1  HED       -0.0531
     10 H6         28.7568   41.8422   23.0442 H       1  HED        0.0265
     11 C306       29.6344   39.9431   22.5250 C.3     1  HED       -0.0531
     12 C307       29.4918   40.1689   21.0013 C.3     1  HED       -0.0531
     13 H11        29.3809   39.1691   20.5316 H       1  HED        0.0265
     14 C308       30.6882   40.8885   20.3522 C.3     1  HED       -0.0531
     15 H13        30.8148   41.8803   20.8334 H       1  HED        0.0265
     16 C309       30.5037   41.1455   18.8407 C.3     1  HED       -0.0533
     17 H15        29.5947   41.7660   18.6794 H       1  HED        0.0265
     18 H16        31.3840   41.7285   18.4902 H       1  HED        0.0265
     19 C310       30.4104   39.8656   17.9924 C.3     1  HED       -0.0559
     20 H17        29.5163   39.2745   18.2790 H       1  HED        0.0263
     21 C311       30.2998   40.1969   16.5037 C.3     1  HED       -0.0653
     22 H19        29.3877   40.7996   16.3059 H       1  HED        0.0230
     23 H20        30.2365   39.2576   15.9139 H       1  HED        0.0230
     24 H21        31.1916   40.7658   16.1639 H       1  HED        0.0230
     25 H18        31.3194   39.2461   18.1512 H       1  HED        0.0263
     26 H14        31.6154   40.2979   20.5166 H       1  HED        0.0265
     27 H12        28.5614   40.7461   20.8054 H       1  HED        0.0265
     28 H8         28.7463   39.3513   22.8377 H       1  HED        0.0265
     29 H10        30.5436   39.3404   22.7316 H       1  HED        0.0265
     30 H7         30.5543   41.8467   23.1288 H       1  HED        0.0265
     31 H3         30.8810   39.3382   25.0538 H       1  HED        0.0265
     32 C301       31.7019   39.3645   27.6972 C.3     1  HED       -0.0186
     33 H22        32.6187   39.9909   27.6554 H       1  HED        0.0298
     34 H23        31.8818   38.4584   27.0762 H       1  HED        0.0298
     35 C18        31.4633   38.8391   29.1340 C.3     2  COR        0.0896
     36 H18        32.3174   38.1671   29.3714 H       2  COR        0.0696
     37 H19        30.5282   38.2366   29.1262 H       2  COR        0.0696
     38 O1         31.4031   39.8175   30.1262 O.3     2  COR       -0.4908
     39 C11        31.2150   39.5406   31.4713 C.ar    2  COR        0.1350
     40 C13        30.9879   38.2295   31.9111 C.ar    2  COR       -0.0111
     41 C12        30.7355   37.9517   33.2616 C.ar    2  COR       -0.0138
     42 C10        30.7314   38.9942   34.2247 C.ar    2  COR       -0.0092
     43 C14        30.3598   38.6661   35.5530 C.ar    2  COR       -0.0534
     44 H7         30.2731   39.4168   36.3168 H       2  COR        0.0624
     45 C15        30.0643   37.3499   35.9075 C.ar    2  COR       -0.0611
     46 C16        30.1158   36.3344   34.9587 C.ar    2  COR       -0.0612
     47 C17        30.4430   36.6322   33.6373 C.ar    2  COR       -0.0539
     48 H10        30.4471   35.8334   32.9051 H       2  COR        0.0624
     49 H11        29.8801   35.3166   35.2392 H       2  COR        0.0618
     50 H8         29.7841   37.1181   36.9273 H       2  COR        0.0618
     51 H6         30.9654   37.4103   31.2063 H       2  COR        0.0660
     52 C9         31.2388   40.5896   32.4211 C.ar    2  COR        0.0576
     53 S1         31.5842   42.2629   31.8121 S.3     2  COR       -0.1205
     54 C1         30.6069   43.3189   32.9512 C.3     2  COR        0.0050
     55 C2         29.9938   42.5590   34.1372 C.3     2  COR       -0.0082
     56 C3         29.0436   43.3888   35.0209 C.3     2  COR       -0.0576
     57 H          28.2359   43.8124   34.3832 H       2  COR        0.0236
     58 H1         29.4826   44.2662   35.5084 H       2  COR        0.0236
     59 H2         28.5654   42.7366   35.7817 H       2  COR        0.0236
     60 H5         29.2190   41.9099   33.6599 H       2  COR        0.0355
     61 H3         31.2958   44.1066   33.2962 H       2  COR        0.0386
     62 H4         29.7943   43.8061   32.3696 H       2  COR        0.0386
     63 C4         31.0310   40.3280   33.8245 C.ar    2  COR        0.0037
     64 C5         30.9663   41.5264   34.7616 C.2     2  COR       -0.0265
     65 C6         31.5861   41.6025   36.0456 C.2     2  COR       -0.0043
     66 C8         32.5223   40.5317   36.6112 C.ar    2  COR        0.0003
     67 C19        33.3936   39.7980   35.7845 C.ar    2  COR       -0.0527
     68 C24        34.3289   38.9150   36.3398 C.ar    2  COR       -0.0577
     69 C25        34.4366   38.7563   37.7300 C.ar    2  COR       -0.0188
     70 C26        33.5838   39.4651   38.5919 C.ar    2  COR        0.1348
     71 C20        32.6190   40.3334   38.0256 C.ar    2  COR        0.0622
     72 S2         31.4661   41.1375   39.1340 S.3     2  COR       -0.0809
     73 O2         33.6693   39.3657   39.9655 O.3     2  COR       -0.4908
     74 C30        34.6687   38.7523   40.7306 C.3     2  COR        0.0896
     75 C          34.4441   39.0577   42.2465 C.3     2  COR       -0.0186
     76 H24        34.3669   40.1648   42.3293 H       2  COR        0.0298
     77 C31        35.5718   38.5859   43.2406 C.3     2  COR       -0.0500
     78 H26        35.6615   37.4796   43.2346 H       2  COR        0.0266
     79 C32        35.3023   39.1086   44.6921 C.3     2  COR       -0.0530
     80 H28        34.3505   38.6892   45.0841 H       2  COR        0.0265
     81 H29        35.1425   40.2023   44.5638 H       2  COR        0.0265
     82 C33        36.4153   39.0241   45.8035 C.3     2  COR       -0.0530
     83 H30        36.0633   39.7292   46.5897 H       2  COR        0.0265
     84 H31        37.3718   39.4286   45.4099 H       2  COR        0.0265
     85 C34        36.6763   37.6891   46.5687 C.3     2  COR       -0.0526
     86 H32        35.6990   37.2968   46.9265 H       2  COR        0.0265
     87 C35        37.5493   37.9213   47.8537 C.3     2  COR       -0.0428
     88 H34        38.5352   38.3768   47.6048 H       2  COR        0.0270
     89 H35        36.9946   38.6436   48.4899 H       2  COR        0.0270
     90 C36        37.8008   36.6340   48.6888 C.3     2  COR        0.0492
     91 C37        38.1993   36.8762   50.1338 C.2     2  COR        0.3560
     92 O          38.4205   35.9218   50.8647 O.co2   2  COR       -0.2464
     93 O4         38.2511   38.1219   50.6466 O.co2   2  COR       -0.2464
     94 H33        37.1394   36.9364   45.8990 H       2  COR        0.0265
     95 H27        36.5295   39.0264   42.8913 H       2  COR        0.0266
     96 H25        33.4677   38.6274   42.5588 H       2  COR        0.0298
     97 H22        35.6507   39.1797   40.4343 H       2  COR        0.0696
     98 H23        34.6763   37.6565   40.5492 H       2  COR        0.0696
     99 H13        35.1843   38.0831   38.1251 H       2  COR        0.0654
    100 H12        34.9968   38.3689   35.6854 H       2  COR        0.0619
    101 H14        33.3881   39.9313   34.7119 H       2  COR        0.0624
    102 C7         31.5615   42.8412   36.9395 C.ar    2  COR        0.0003
    103 C22        31.6992   44.1206   36.3858 C.ar    2  COR       -0.0527
    104 C27        31.7787   45.2552   37.1883 C.ar    2  COR       -0.0577
    105 C28        31.7756   45.1447   38.5778 C.ar    2  COR       -0.0188
    106 H17        31.8570   46.0529   39.1562 H       2  COR        0.0654
    107 H16        31.8702   46.2303   36.7252 H       2  COR        0.0619
    108 H15        31.7696   44.2507   35.3269 H       2  COR        0.0624
    109 C21        31.5907   42.7323   38.3649 C.ar    2  COR        0.0622
    110 C23        31.7034   43.8783   39.1976 C.ar    2  COR        0.1348
    111 O3         31.7793   43.7357   40.5760 O.3     2  COR       -0.4908
    112 C29        31.9842   44.7999   41.4604 C.3     2  COR        0.0896
    113 H20        31.0959   45.4676   41.4729 H       2  COR        0.0696
    114 H21        32.8449   45.3859   41.0646 H       2  COR        0.0696
    115 C201       32.4358   44.4347   42.9158 C.3     3  RLG       -0.0186
    116 H17        32.7445   45.4076   43.3569 H       3  RLG        0.0298
    117 H18        33.3398   43.7906   42.8617 H       3  RLG        0.0298
    118 C202       31.4172   43.8297   43.9303 C.3     3  RLG       -0.0500
    119 H          30.5009   44.4591   43.9245 H       3  RLG        0.0266
    120 C203       32.0071   43.8082   45.4027 C.3     3  RLG       -0.0530
    121 H2         32.2648   44.8496   45.6892 H       3  RLG        0.0265
    122 H3         32.9350   43.1995   45.3964 H       3  RLG        0.0265
    123 C204       31.0452   43.2285   46.4913 C.3     3  RLG       -0.0530
    124 H4         30.0991   43.8135   46.4695 H       3  RLG        0.0265
    125 C205       31.5242   43.1222   48.0081 C.3     3  RLG       -0.0526
    126 H6         30.7054   42.5666   48.5165 H       3  RLG        0.0265
    127 H7         32.4437   42.5055   48.1007 H       3  RLG        0.0265
    128 C206       31.6645   44.4766   48.7782 C.3     3  RLG       -0.0428
    129 H8         32.5641   45.0316   48.4412 H       3  RLG        0.0270
    130 C207       31.5060   44.5471   50.3508 C.3     3  RLG        0.0492
    131 C210       32.5982   44.1843   51.3459 C.2     3  RLG        0.3560
    132 O201       33.0440   45.0497   52.0911 O.co2   3  RLG       -0.2464
    133 O202       32.9495   42.9023   51.5538 O.co2   3  RLG       -0.2464
    134 H10        30.7751   45.0489   48.4475 H       3  RLG        0.0270
    135 H5         30.7948   42.1974   46.1604 H       3  RLG        0.0265
    136 H1         31.1390   42.8069   43.5941 H       3  RLG        0.0266
    137 H          30.5897   44.0037   50.6604 H       1  RLG        0.0379
    138 H          31.3216   45.6262   50.5511 H       1  RLG        0.0379
    139 H          38.5950   36.0303   48.1961 H       1  RLG        0.0379
    140 H          36.8729   36.0305   48.7365 H       1  RLG        0.0379
@<TRIPOS>BOND
     1    34    32    1
     2    22    21    1
     3    23    21    1
     4    21    24    1
     5    21    19    1
     6    36    35    1
     7    33    32    1
     8    31     4    1
     9    17    16    1
    10    20    19    1
    11    32    35    1
    12    32     1    1
    13    13    12    1
    14    10     9    1
    15    35    37    1
    16    35    38    1
    17    19    16    1
    18    19    25    1
    19    16    18    1
    20    16    14    1
    21     3     1    1
    22     4     1    1
    23     4     5    1
    24     4     6    1
    25     1     2    1
    26    12    27    1
    27    12    14    1
    28    12    11    1
    29     9     6    1
    30     9    30    1
    31     9    11    1
    32    38    39    1
    33    26    14    1
    34     8     6    1
    35    14    15    1
    36     6     7    1
    37    11    28    1
    38    11    29    1
    39    53    52    1
    40    53    54    1
    41    39    40   ar
    42    39    52   ar
    43    51    40    1
    44    62    54    1
    45    40    41   ar
    46    52    63   ar
    47    54    61    1
    48    54    55    1
    49    60    55    1
    50    41    42   ar
    51    41    47   ar
    52    63    42   ar
    53    63    64    1
    54    55    64    1
    55    55    56    1
    56    48    47    1
    57   101    67    1
    58    42    43   ar
    59    57    56    1
    60    47    46   ar
    61    64    65    2
    62   108   103    1
    63    56    58    1
    64    56    59    1
    65   100    68    1
    66    67    68   ar
    67    67    66   ar
    68    65    66    1
    69    65   102    1
    70   103   102   ar
    71   103   104   ar
    72    43    44    1
    73    43    45   ar
    74    46    49    1
    75    46    45   ar
    76    68    69   ar
    77   107   104    1
    78    66    71   ar
    79   102   109   ar
    80   104   105   ar
    81    45    50    1
    82    69    99    1
    83    69    70   ar
    84    71    70   ar
    85    71    72    1
    86   109   110   ar
    87   109    72    1
    88   105   106    1
    89   105   110   ar
    90    70    73    1
    91   110   111    1
    92    73    74    1
    93    97    74    1
    94   111   112    1
    95   113   112    1
    96    74    98    1
    97    74    75    1
    98   114   112    1
    99   112   115    1
   100    78    77    1
   101    95    77    1
   102    75    77    1
   103    75    76    1
   104    75    96    1
   105    77    79    1
   106   136   118    1
   107   115   117    1
   108   115   118    1
   109   115   116    1
   110   119   118    1
   111    84    82    1
   112   118   120    1
   113    83    82    1
   114    82    79    1
   115    82    85    1
   116    79    80    1
   117    79    81    1
   118   124   123    1
   119   120   123    1
   120   120   122    1
   121   120   121    1
   122   135   123    1
   123   123   125    1
   124    85    94    1
   125    85    86    1
   126    85    87    1
   127    89    87    1
   128    87    88    1
   129    87    90    1
   130   125   126    1
   131   125   127    1
   132   125   128    1
   133   130   128    1
   134   134   128    1
   135   128   129    1
   136   132   131   ar
   137   131   133   ar
   138    92    91   ar
   139    91    93   ar
   140   131   130    1
   141   130   137    1
   142   130   138    1
   143    91    90    1
   144    90   139    1
   145    90   140    1
