@<TRIPOS>MOLECULE
motor2m-R
 152 157 0 0 0
SMALL
GASTEIGER

@<TRIPOS>ATOM
      1 C1         -0.6214    0.4299    1.8743 C.3     1  COR        0.0050
      2 C2         -0.3626   -0.8776    1.1092 C.3     1  COR       -0.0082
      3 C3          0.5377   -0.6892   -0.1136 C.3     1  COR       -0.0576
      4 C4         -2.5029   -0.6727   -0.2563 C.ar    1  COR        0.0037
      5 S1         -1.6763    1.6685    1.0347 S.3     1  COR       -0.1205
      6 H           1.5027   -0.2360    0.2104 H       1  COR        0.0236
      7 H           0.0827   -0.0258   -0.8743 H       1  COR        0.0236
      8 H           0.7611   -1.6798   -0.5612 H       1  COR        0.0236
      9 C5         -1.7431   -1.4323    0.8071 C.2     1  COR       -0.0265
     10 C6         -2.3814   -2.5740    1.3323 C.2     1  COR       -0.0043
     11 C7         -3.9063   -2.6084    1.2330 C.ar    1  COR        0.0003
     12 C8         -1.7020   -3.7947    1.8982 C.ar    1  COR        0.0003
     13 C9         -2.6365    0.7291   -0.2033 C.ar    1  COR        0.0576
     14 C10        -3.1164   -1.4093   -1.3294 C.ar    1  COR       -0.0092
     15 C11        -3.5561    1.3700   -1.1180 C.ar    1  COR        0.1350
     16 H           0.3480    0.9136    2.1220 H       1  COR        0.0386
     17 H          -1.1371    0.1945    2.8320 H       1  COR        0.0386
     18 H           0.2463   -1.4577    1.7780 H       1  COR        0.0355
     19 C12        -3.9973   -0.7582   -2.2107 C.ar    1  COR       -0.0138
     20 C13        -4.2274    0.6016   -2.0728 C.ar    1  COR       -0.0111
     21 O1         -3.8579    2.6995   -1.1342 O.3     1  COR       -0.4908
     22 H          -4.9158    1.0949   -2.7508 H       1  COR        0.0660
     23 C14        -2.8442   -2.7862   -1.5579 C.ar    1  COR       -0.0534
     24 H          -2.1272   -3.3333   -0.9673 H       1  COR        0.0624
     25 C15        -3.4808   -3.4895   -2.5759 C.ar    1  COR       -0.0611
     26 C16        -4.3923   -2.8449   -3.4010 C.ar    1  COR       -0.0612
     27 H          -3.2626   -4.5406   -2.7211 H       1  COR        0.0618
     28 C17        -4.6447   -1.4838   -3.2298 C.ar    1  COR       -0.0539
     29 H          -5.3405   -0.9929   -3.8983 H       1  COR        0.0624
     30 H          -4.8891   -3.3989   -4.1864 H       1  COR        0.0618
     31 C18        -3.2307    3.7046   -0.4503 C.3     1  COR        0.0896
     32 C19        -0.4962   -3.7890    2.6461 C.ar    1  COR       -0.0527
     33 C20        -2.2647   -5.0591    1.5579 C.ar    1  COR        0.0622
     34 S2         -3.7856   -5.2698    0.5548 S.3     1  COR       -0.0809
     35 C21        -4.6707   -3.7561    0.9088 C.ar    1  COR        0.0622
     36 C22        -4.5854   -1.3989    1.5122 C.ar    1  COR       -0.0527
     37 C23        -6.1137   -3.6271    0.7686 C.ar    1  COR        0.1348
     38 C24         0.1613   -4.9767    2.9640 C.ar    1  COR       -0.0577
     39 C25        -0.3616   -6.1954    2.5678 C.ar    1  COR       -0.0188
     40 C26        -1.5806   -6.2397    1.8798 C.ar    1  COR        0.1348
     41 H           1.0965   -4.9489    3.5108 H       1  COR        0.0619
     42 H           0.1812   -7.0999    2.8073 H       1  COR        0.0654
     43 H          -0.0394   -2.9054    3.0141 H       1  COR        0.0624
     44 O2         -2.1242   -7.4035    1.4710 O.3     1  COR       -0.4908
     45 C27        -5.9546   -1.2929    1.4068 C.ar    1  COR       -0.0577
     46 C28        -6.7031   -2.3854    1.0249 C.ar    1  COR       -0.0188
     47 H          -4.0373   -0.5160    1.8154 H       1  COR        0.0624
     48 H          -6.4382   -0.3456    1.6084 H       1  COR        0.0619
     49 H          -7.7748   -2.2697    0.9214 H       1  COR        0.0654
     50 O3         -7.0023   -4.5881    0.3589 O.3     1  COR       -0.4908
     51 C29        -6.9078   -5.9454    0.1428 C.3     1  COR        0.0896
     52 C30        -1.4811   -8.6044    1.3137 C.3     1  COR        0.0896
     53 C101       -2.5431   -9.5895    0.8764 C.3     1  LLG       -0.0186
     54 H          -1.0281   -8.9466    2.2691 H       1  COR        0.0696
     55 H          -0.6967   -8.5063    0.5304 H       1  COR        0.0696
     56 H          -3.2926   -9.6562    1.6974 H       1  LLG        0.0298
     57 C102       -1.9668  -10.9666    0.5919 C.3     1  LLG       -0.0500
     58 H          -3.0521   -9.2110   -0.0388 H       1  LLG        0.0298
     59 H          -1.4116  -11.3249    1.4869 H       1  LLG        0.0266
     60 H          -1.2694  -10.9193   -0.2738 H       1  LLG        0.0266
     61 C103       -3.1212  -11.9197    0.3047 C.3     1  LLG       -0.0530
     62 H          -3.7940  -11.9161    1.1923 H       1  LLG        0.0265
     63 C104       -2.6224  -13.3393    0.0804 C.3     1  LLG       -0.0531
     64 H          -3.7001  -11.5768   -0.5821 H       1  LLG        0.0265
     65 H          -2.0003  -13.6405    0.9523 H       1  LLG        0.0265
     66 H          -2.0012  -13.3890   -0.8411 H       1  LLG        0.0265
     67 C105       -3.8166  -14.2852   -0.0154 C.3     1  LLG       -0.0531
     68 H          -4.4217  -14.1779    0.9133 H       1  LLG        0.0265
     69 C106       -3.3509  -15.7326   -0.1209 C.3     1  LLG       -0.0530
     70 H          -4.4534  -14.0187   -0.8882 H       1  LLG        0.0265
     71 H          -2.6828  -15.9566    0.7405 H       1  LLG        0.0265
     72 H          -2.7824  -15.8795   -1.0656 H       1  LLG        0.0265
     73 C107       -4.5506  -16.6769   -0.0635 C.3     1  LLG       -0.0526
     74 H          -5.1083  -16.4906    0.8819 H       1  LLG        0.0265
     75 C108       -4.0877  -18.1326   -0.0817 C.3     1  LLG       -0.0428
     76 H          -5.2285  -16.4794   -0.9232 H       1  LLG        0.0265
     77 H          -3.3960  -18.3028    0.7736 H       1  LLG        0.0270
     78 H          -3.5459  -18.3354   -1.0318 H       1  LLG        0.0270
     79 C109       -5.2839  -19.0813    0.0519 C.3     1  LLG        0.0492
     80 H          -5.8180  -18.8587    1.0016 H       1  LLG        0.0379
     81 C110       -4.8818  -20.5349    0.0693 C.2     1  LLG        0.3560
     82 H          -5.9816  -18.9148   -0.7969 H       1  LLG        0.0379
     83 C          -8.2018   -6.4699   -0.5506 C.3     1  RLG       -0.0186
     84 H          -6.7345   -6.4693    1.1062 H       1  COR        0.0696
     85 H          -6.0747   -6.1545   -0.5575 H       1  COR        0.0696
     86 C          -9.5391   -6.2861    0.2219 C.3     1  RLG       -0.0500
     87 H          -8.0587   -7.5544   -0.7444 H       1  RLG        0.0298
     88 H          -8.2978   -5.9575   -1.5341 H       1  RLG        0.0298
     89 H          -9.4631   -6.7842    1.2111 H       1  RLG        0.0266
     90 C         -10.7394   -6.9001   -0.5605 C.3     1  RLG       -0.0530
     91 H          -9.7242   -5.2012    0.3800 H       1  RLG        0.0266
     92 H         -10.5505   -7.9844   -0.7174 H       1  RLG        0.0265
     93 H         -10.8027   -6.4105   -1.5578 H       1  RLG        0.0265
     94 C         -12.1097   -6.7347    0.1518 C.3     1  RLG       -0.0531
     95 H         -12.0677   -7.2197    1.1490 H       1  RLG        0.0265
     96 C         -13.2735   -7.3472   -0.6756 C.3     1  RLG       -0.0531
     97 H         -12.3058   -5.6493    0.2877 H       1  RLG        0.0265
     98 H         -13.2494   -6.8793   -1.6842 H       1  RLG        0.0265
     99 H         -13.1244   -8.4416   -0.8050 H       1  RLG        0.0265
    100 C         -14.6917   -7.0792   -0.1066 C.3     1  RLG       -0.0530
    101 H         -14.8203   -5.9815    0.0103 H       1  RLG        0.0265
    102 C         -14.9997   -7.7810    1.2317 C.3     1  RLG       -0.0526
    103 H         -15.4309   -7.4324   -0.8576 H       1  RLG        0.0265
    104 H         -14.2304   -7.4777    1.9701 H       1  RLG        0.0265
    105 H         -14.9499   -8.8857    1.1093 H       1  RLG        0.0265
    106 C         -16.3686   -7.3766    1.8304 C.3     1  RLG       -0.0428
    107 H         -16.4405   -7.8258    2.8458 H       1  RLG        0.0270
    108 C         -17.5960   -7.8524    1.0282 C.3     1  RLG        0.0492
    109 H         -16.3894   -6.2701    1.9302 H       1  RLG        0.0270
    110 H         -17.5742   -8.9630    0.9778 H       1  RLG        0.0379
    111 H         -17.5551   -7.4499   -0.0041 H       1  RLG        0.0379
    112 C         -18.9352   -7.4386    1.6164 C.2     1  RLG        0.3560
    113 O101       -5.8252  -21.4899    0.1983 O.co2   1  LLG       -0.2464
    114 O102       -3.7083  -20.8614   -0.0269 O.co2   1  LLG       -0.2464
    115 O         -19.9575   -7.8029    1.0574 O.co2   1  RLG       -0.2464
    116 O         -19.0415   -6.6736    2.7293 O.co2   1  RLG       -0.2464
    117 C301       -3.8490    5.0650   -0.7489 C.3     1  HED       -0.0186
    118 H          -2.1658    3.7057   -0.7764 H       1  COR        0.0696
    119 H          -3.3378    3.5580    0.6424 H       1  COR        0.0696
    120 H          -3.9095    5.2228   -1.8490 H       1  HED        0.0298
    121 C302       -2.9046    6.1076   -0.1545 C.3     1  HED       -0.0500
    122 H          -4.8713    5.1292   -0.3162 H       1  HED        0.0298
    123 H          -1.9362    5.9552   -0.6844 H       1  HED        0.0266
    124 H          -2.7369    5.9309    0.9314 H       1  HED        0.0266
    125 C303       -3.3471    7.5559   -0.3577 C.3     1  HED       -0.0530
    126 H          -3.6605    7.7000   -1.4152 H       1  HED        0.0265
    127 C304       -2.1240    8.4439   -0.1093 C.3     1  HED       -0.0531
    128 H          -4.2005    7.8042    0.3102 H       1  HED        0.0265
    129 H          -1.3712    8.0747   -0.8239 H       1  HED        0.0265
    130 H          -1.7188    8.3074    0.9180 H       1  HED        0.0265
    131 C305       -2.3844    9.9298   -0.3721 C.3     1  HED       -0.0531
    132 H          -2.9412   10.0622   -1.3248 H       1  HED        0.0265
    133 C306       -1.0717   10.7367   -0.4777 C.3     1  HED       -0.0531
    134 H          -3.0162   10.3221    0.4547 H       1  HED        0.0265
    135 C307       -0.2589   10.3373   -1.7342 C.3     1  HED       -0.0531
    136 H          -0.4614   10.6002    0.4423 H       1  HED        0.0265
    137 H          -1.3516   11.8070   -0.5577 H       1  HED        0.0265
    138 H           0.0601    9.2813   -1.6717 H       1  HED        0.0265
    139 C308        1.0406   11.1148   -1.9450 C.3     1  HED       -0.0531
    140 H          -0.8975   10.4524   -2.6377 H       1  HED        0.0265
    141 H           1.7114   10.9806   -1.0684 H       1  HED        0.0265
    142 C309        0.8193   12.6020   -2.2288 C.3     1  HED       -0.0533
    143 H           1.5374   10.6645   -2.8339 H       1  HED        0.0265
    144 H           0.3884   13.0995   -1.3341 H       1  HED        0.0265
    145 H           0.1118   12.7101   -3.0806 H       1  HED        0.0265
    146 C310        2.1476   13.2680   -2.6014 C.3     1  HED       -0.0559
    147 H           2.8708   13.1614   -1.7638 H       1  HED        0.0263
    148 C311        1.9551   14.7468   -2.9115 C.3     1  HED       -0.0653
    149 H           2.5705   12.7699   -3.5022 H       1  HED        0.0263
    150 H           1.5587   15.2771   -2.0202 H       1  HED        0.0230
    151 H           1.2481   14.8727   -3.7593 H       1  HED        0.0230
    152 H           2.9313   15.1946   -3.1924 H       1  HED        0.0230
@<TRIPOS>BOND
     1     1     2    1
     2     1     5    1
     3     1    16    1
     4     1    17    1
     5     2     3    1
     6     2     9    1
     7     2    18    1
     8     3     6    1
     9     3     7    1
    10     3     8    1
    11     4     9    1
    12     4    13   ar
    13     4    14   ar
    14     5    13    1
    15     9    10    2
    16    10    11    1
    17    10    12    1
    18    11    35   ar
    19    11    36   ar
    20    12    32   ar
    21    12    33   ar
    22    13    15   ar
    23    14    19   ar
    24    14    23   ar
    25    15    20   ar
    26    15    21    1
    27    19    20   ar
    28    19    28   ar
    29    20    22    1
    30    21    31    1
    31    23    24    1
    32    23    25   ar
    33    25    26   ar
    34    25    27    1
    35    26    28   ar
    36    26    30    1
    37    28    29    1
    38    31   117    1
    39    31   118    1
    40    31   119    1
    41    32    38   ar
    42    32    43    1
    43    33    34    1
    44    33    40   ar
    45    34    35    1
    46    35    37   ar
    47    36    45   ar
    48    36    47    1
    49    37    46   ar
    50    37    50    1
    51    38    39   ar
    52    38    41    1
    53    39    40   ar
    54    39    42    1
    55    40    44    1
    56    44    52    1
    57    45    46   ar
    58    45    48    1
    59    46    49    1
    60    50    51    1
    61    51    83    1
    62    51    84    1
    63    51    85    1
    64    52    53    1
    65    52    54    1
    66    52    55    1
    67    53    56    1
    68    53    57    1
    69    53    58    1
    70    57    59    1
    71    57    60    1
    72    57    61    1
    73    61    62    1
    74    61    63    1
    75    61    64    1
    76    63    65    1
    77    63    66    1
    78    63    67    1
    79    67    68    1
    80    67    69    1
    81    67    70    1
    82    69    71    1
    83    69    72    1
    84    69    73    1
    85    73    74    1
    86    73    75    1
    87    73    76    1
    88    75    77    1
    89    75    78    1
    90    75    79    1
    91    79    80    1
    92    79    81    1
    93    79    82    1
    94    81   113   ar
    95    81   114   ar
    96    83    86    1
    97    83    87    1
    98    83    88    1
    99    86    89    1
   100    86    90    1
   101    86    91    1
   102    90    92    1
   103    90    93    1
   104    90    94    1
   105    94    95    1
   106    94    96    1
   107    94    97    1
   108    96    98    1
   109    96    99    1
   110    96   100    1
   111   100   101    1
   112   100   102    1
   113   100   103    1
   114   102   104    1
   115   102   105    1
   116   102   106    1
   117   106   107    1
   118   106   108    1
   119   106   109    1
   120   108   110    1
   121   108   111    1
   122   108   112    1
   123   112   115   ar
   124   112   116   ar
   125   117   120    1
   126   117   121    1
   127   117   122    1
   128   121   123    1
   129   121   124    1
   130   121   125    1
   131   125   126    1
   132   125   127    1
   133   125   128    1
   134   127   129    1
   135   127   130    1
   136   127   131    1
   137   131   132    1
   138   131   133    1
   139   131   134    1
   140   133   135    1
   141   133   136    1
   142   133   137    1
   143   135   138    1
   144   135   139    1
   145   135   140    1
   146   139   141    1
   147   139   142    1
   148   139   143    1
   149   142   144    1
   150   142   145    1
   151   142   146    1
   152   146   147    1
   153   146   148    1
   154   146   149    1
   155   148   150    1
   156   148   151    1
   157   148   152    1
