@<TRIPOS>MOLECULE
motor-R base molecule DONT TUCH
 154 159 0 0 0
SMALL
GASTEIGER

@<TRIPOS>ATOM
      1 C          -0.9210    1.2080    2.3750 C.3     1  COR       0.0050
      2 C          -0.9160   -0.1060    1.5930 C.3     1  COR      -0.0082
      3 C          -0.2400    0.1850    0.2040 C.3     1  COR      -0.0576
      4 C          -3.5310    0.2430    1.8310 C.ar    1  COR       0.0037
      5 S          -1.8610    2.4310    1.4190 S.3     1  COR      -0.1205
      6 H           0.8110    0.5110    0.3520 H       1  COR       0.0236
      7 H          -0.7640    0.9670   -0.3780 H       1  COR       0.0236
      8 H          -0.2590   -0.6520   -0.5160 H       1  COR       0.0236
      9 C          -2.3280   -0.6350    1.3570 C.2     1  COR      -0.0265
     10 C          -2.5480   -1.8680    0.7200 C.2     1  COR      -0.0043
     11 C          -3.8670   -2.0410   -0.0360 C.ar    1  COR       0.0003
     12 C          -1.5490   -3.0460    0.5610 C.ar    1  COR       0.0003
     13 C          -3.4410    1.6740    1.8200 C.ar    1  COR       0.0576
     14 C          -4.7460   -0.3460    2.3570 C.ar    1  COR      -0.0092
     15 C          -4.5850    2.4840    2.1520 C.ar    1  COR       0.1350
     16 H           0.1150    1.5820    2.5200 H       1  COR       0.0386
     17 H          -1.3560    1.0870    3.3920 H       1  COR       0.0386
     18 H          -0.3510   -0.8280    2.2130 H       1  COR       0.0355
     19 C          -5.8530    0.4840    2.6720 C.ar    1  COR      -0.0138
     20 C          -5.7630    1.8610    2.5370 C.ar    1  COR      -0.0111
     21 O          -4.6330    3.8540    2.1180 O.3     1  COR      -0.4908
     22 H          -6.6190    2.4800    2.7850 H       1  COR       0.0660
     23 C          -4.8780   -1.7320    2.6380 C.ar    1  COR      -0.0534
     24 H          -4.0640   -2.4200    2.5160 H       1  COR       0.0624
     25 C          -6.0710   -2.2660    3.1240 C.ar    1  COR      -0.0611
     26 C          -7.1610   -1.4420    3.3650 C.ar    1  COR      -0.0612
     27 H          -6.1460   -3.3280    3.3210 H       1  COR       0.0618
     28 C          -7.0520   -0.0730    3.1520 C.ar    1  COR      -0.0539
     29 H          -7.9020    0.5610    3.3790 H       1  COR       0.0624
     30 H          -8.0840   -1.8610    3.7430 H       1  COR       0.0618
     31 C          -3.6450    4.7310    1.7360 C.3     1  COR       0.0896
     32 C          -0.1230   -2.9770    0.5980 C.ar    1  COR      -0.0527
     33 C          -2.0970   -4.3530    0.4250 C.ar    1  COR       0.0622
     34 S          -3.8360   -4.6760    0.6760 S.3     1  COR      -0.0809
     35 C          -4.5020   -3.2910   -0.1970 C.ar    1  COR       0.0622
     36 C          -4.4230   -0.9200   -0.6990 C.ar    1  COR      -0.0527
     37 C          -5.7040   -3.3980   -0.9740 C.ar    1  COR       0.1348
     38 C           0.6720   -4.1110    0.4130 C.ar    1  COR      -0.0577
     39 C           0.1000   -5.3570    0.2230 C.ar    1  COR      -0.0188
     40 C          -1.2880   -5.4880    0.2520 C.ar    1  COR       0.1348
     41 H           1.7510   -4.0180    0.4260 H       1  COR       0.0619
     42 H           0.7410   -6.2180    0.0950 H       1  COR       0.0654
     43 H           0.4370   -2.0950    0.7530 H       1  COR       0.0624
     44 O          -1.9000   -6.6950    0.1530 O.3     1  COR      -0.4908
     45 C          -5.5800   -1.0280   -1.4550 C.ar    1  COR      -0.0577
     46 C          -6.2140   -2.2520   -1.5860 C.ar    1  COR      -0.0188
     47 H          -3.9430    0.0480   -0.6570 H       1  COR       0.0624
     48 H          -5.9850   -0.1550   -1.9510 H       1  COR       0.0619
     49 H          -7.1190   -2.3170   -2.1780 H       1  COR       0.0654
     50 O          -6.4250   -4.5420   -1.1650 O.3     1  COR      -0.4908
     51 C          -6.1870   -5.8370   -0.7500 C.3     1  COR       0.0896
     52 C          -1.3050   -7.9320    0.0430 C.3     1  COR       0.0896
     53 C          -2.4240   -8.9700    0.0390 C.3     1  LLG      -0.0186
     54 H          -0.6400   -8.1080    0.9170 H       1  COR       0.0696
     55 H          -0.7160   -7.9920   -0.8990 H       1  COR       0.0696
     56 H          -3.0120   -8.8510    0.9760 H       1  LLG       0.0298
     57 C          -1.8970  -10.4030   -0.0380 C.3     1  LLG      -0.0500
     58 H          -3.0960   -8.7740   -0.8260 H       1  LLG       0.0298
     59 H          -1.2210  -10.5920    0.8250 H       1  LLG       0.0266
     60 H          -1.3250  -10.5410   -0.9820 H       1  LLG       0.0266
     61 C          -3.0690  -11.3900    0.0110 C.3     1  LLG      -0.0530
     62 H          -3.6360  -11.2320    0.9560 H       1  LLG       0.0265
     63 C          -2.5840  -12.8410   -0.0380 C.3     1  LLG      -0.0531
     64 H          -3.7490  -11.2000   -0.8490 H       1  LLG       0.0265
     65 H          -1.9000  -13.0270    0.8190 H       1  LLG       0.0265
     66 H          -2.0280  -13.0120   -0.9860 H       1  LLG       0.0265
     67 C          -3.7700  -13.8090    0.0440 C.3     1  LLG      -0.0531
     68 H          -4.3230  -13.6300    0.9930 H       1  LLG       0.0265
     69 C          -3.2940  -15.2640    0.0070 C.3     1  LLG      -0.0530
     70 H          -4.4590  -13.6240   -0.8100 H       1  LLG       0.0265
     71 H          -2.6020  -15.4440    0.8590 H       1  LLG       0.0265
     72 H          -2.7470  -15.4460   -0.9440 H       1  LLG       0.0265
     73 C          -4.4780  -16.2330    0.1070 C.3     1  LLG      -0.0526
     74 H          -5.0230  -16.0490    1.0600 H       1  LLG       0.0265
     75 C          -3.9950  -17.6870    0.0730 C.3     1  LLG      -0.0430
     76 H          -5.1730  -16.0550   -0.7430 H       1  LLG       0.0265
     77 H          -3.2980  -17.8600    0.9230 H       1  LLG       0.0270
     78 H          -3.4530  -17.8690   -0.8810 H       1  LLG       0.0270
     79 C          -5.1740  -18.6650    0.1810 C.3     1  LLG       0.0448
     80 H          -5.7150  -18.4800    1.1350 H       1  LLG       0.0377
     81 C          -4.7460  -20.1130    0.1520 C.2     1  LLG       0.3047
     82 H          -5.8730  -18.4900   -0.6650 H       1  LLG       0.0377
     83 C          -7.3640   -6.7270   -1.1500 C.3     1  RLG      -0.0186
     84 H          -6.1160   -5.8840    0.3560 H       1  COR       0.0696
     85 H          -5.2570   -6.2210   -1.2230 H       1  COR       0.0696
     86 C          -8.6490   -6.2420   -0.4650 C.3     1  RLG      -0.0500
     87 H          -7.1460   -7.7690   -0.8290 H       1  RLG       0.0298
     88 H          -7.4890   -6.7140   -2.2550 H       1  RLG       0.0298
     89 H          -8.4890   -6.2380    0.6370 H       1  RLG       0.0266
     90 C          -9.8510   -7.1340   -0.7800 C.3     1  RLG      -0.0530
     91 H          -8.8710   -5.2030   -0.7950 H       1  RLG       0.0266
     92 H          -9.6420   -8.1710   -0.4360 H       1  RLG       0.0265
     93 H         -10.0320   -7.1460   -1.8770 H       1  RLG       0.0265
     94 C         -11.0890   -6.5920   -0.0580 C.3     1  RLG      -0.0531
     95 H         -10.8880   -6.5640    1.0370 H       1  RLG       0.0265
     96 C         -12.3280   -7.4560   -0.3100 C.3     1  RLG      -0.0531
     97 H         -11.2890   -5.5560   -0.4090 H       1  RLG       0.0265
     98 H         -12.1370   -8.4900    0.0540 H       1  RLG       0.0265
     99 H         -12.5410   -7.4910   -1.4010 H       1  RLG       0.0265
    100 C         -13.5340   -6.8650    0.4300 C.3     1  RLG      -0.0530
    101 H         -13.3090   -6.8200    1.5190 H       1  RLG       0.0265
    102 C         -14.7960   -7.7040    0.2160 C.3     1  RLG      -0.0526
    103 H         -13.7150   -5.8310    0.0600 H       1  RLG       0.0265
    104 H         -14.6210   -8.7350    0.5950 H       1  RLG       0.0265
    105 H         -15.0250   -7.7550   -0.8710 H       1  RLG       0.0265
    106 C         -15.9840   -7.0810    0.9590 C.3     1  RLG      -0.0430
    107 H         -15.7450   -7.0290    2.0440 H       1  RLG       0.0270
    108 C         -17.2600   -7.9090    0.7620 C.3     1  RLG       0.0448
    109 H         -16.1500   -6.0520    0.5690 H       1  RLG       0.0270
    110 H         -17.0800   -8.9370    1.1440 H       1  RLG       0.0377
    111 H         -17.4820   -7.9700   -0.3250 H       1  RLG       0.0377
    112 C         -18.4850   -7.3560    1.4610 C.2     1  RLG       0.3047
    113 O          -5.6720  -21.0900    0.2400 O.3     1  LLG      -0.4806
    114 H          -6.6140  -20.8820    0.3230 H       1  LLG       0.2951
    115 O          -3.5670  -20.4150    0.0500 O.2     1  LLG      -0.2510
    116 O         -19.5410   -7.9590    1.3530 O.2     1  RLG      -0.2510
    117 O         -18.4560   -6.2200    2.1970 O.3     1  RLG      -0.4806
    118 H         -17.6600   -5.6890    2.3270 H       1  RLG       0.2951
    119 C          -4.1210    6.1840    1.7240 C.3     1  HED      -0.0186
    120 H          -3.3420    4.4840    0.6950 H       1  COR       0.0696
    121 H          -2.7960    4.6580    2.4500 H       1  COR       0.0696
    122 H          -4.9770    6.2870    1.0220 H       1  HED       0.0298
    123 C          -2.9420    7.0350    1.2390 C.3     1  HED      -0.0500
    124 H          -4.4400    6.5010    2.7400 H       1  HED       0.0298
    125 H          -2.6260    6.6420    0.2460 H       1  HED       0.0266
    126 H          -2.0950    6.9150    1.9510 H       1  HED       0.0266
    127 C          -3.2410    8.5280    1.0730 C.3     1  HED      -0.0530
    128 H          -4.0780    8.6600    0.3520 H       1  HED       0.0265
    129 C          -1.9730    9.1900    0.5180 C.3     1  HED      -0.0531
    130 H          -3.5240    8.9800    2.0480 H       1  HED       0.0265
    131 H          -1.7210    8.6610   -0.4220 H       1  HED       0.0265
    132 H          -1.1430    9.0520    1.2460 H       1  HED       0.0265
    133 C          -2.1270   10.6860    0.2180 C.3     1  HED      -0.0531
    134 H          -2.9330   10.8410   -0.5320 H       1  HED       0.0265
    135 C          -0.8090   11.3060   -0.2960 C.3     1  HED      -0.0531
    136 H          -2.4150   11.2080    1.1560 H       1  HED       0.0265
    137 C          -0.3260   10.7000   -1.6320 C.3     1  HED      -0.0531
    138 H          -0.0220   11.1680    0.4780 H       1  HED       0.0265
    139 H          -0.9790   12.3950   -0.4280 H       1  HED       0.0265
    140 H          -0.1670    9.6110   -1.5120 H       1  HED       0.0265
    141 C           1.0280   11.2420   -2.1080 C.3     1  HED      -0.0531
    142 H          -1.0960   10.8570   -2.4180 H       1  HED       0.0265
    143 H           1.7980   11.0440   -1.3300 H       1  HED       0.0265
    144 C           1.0120   12.7330   -2.4600 C.3     1  HED      -0.0533
    145 H           1.3080   10.6720   -3.0220 H       1  HED       0.0265
    146 H           0.7740   13.3350   -1.5580 H       1  HED       0.0265
    147 H           0.2360   12.9170   -3.2360 H       1  HED       0.0265
    148 C           2.3810   13.1640   -3.0020 C.3     1  HED      -0.0559
    149 H           3.1630   12.9810   -2.2310 H       1  HED       0.0263
    150 C           2.3920   14.6420   -3.3740 C.3     1  HED      -0.0653
    151 H           2.6290   12.5670   -3.9070 H       1  HED       0.0263
    152 H           2.1710   15.2650   -2.4810 H       1  HED       0.0230
    153 H           1.6350   14.8460   -4.1600 H       1  HED       0.0230
    154 H           3.3940   14.9180   -3.7630 H       1  HED       0.0230
@<TRIPOS>BOND
     1     1     2    1
     2     1     5    1
     3     1    16    1
     4     1    17    1
     5     2     3    1
     6     2     9    1
     7     2    18    1
     8     3     6    1
     9     3     7    1
    10     3     8    1
    11     4     9    1
    12     4    13   ar
    13     4    14   ar
    14     5    13    1
    15     9    10    2
    16    10    11    1
    17    10    12    1
    18    11    35   ar
    19    11    36   ar
    20    12    32   ar
    21    12    33   ar
    22    13    15   ar
    23    14    19   ar
    24    14    23   ar
    25    15    20   ar
    26    15    21    1
    27    19    20   ar
    28    19    28   ar
    29    20    22    1
    30    21    31    1
    31    23    24    1
    32    23    25   ar
    33    25    26   ar
    34    25    27    1
    35    26    28   ar
    36    26    30    1
    37    28    29    1
    38    31   119    1
    39    31   120    1
    40    31   121    1
    41    32    38   ar
    42    32    43    1
    43    33    34    1
    44    33    40   ar
    45    34    35    1
    46    35    37   ar
    47    36    45   ar
    48    36    47    1
    49    37    46   ar
    50    37    50    1
    51    38    39   ar
    52    38    41    1
    53    39    40   ar
    54    39    42    1
    55    40    44    1
    56    44    52    1
    57    45    46   ar
    58    45    48    1
    59    46    49    1
    60    50    51    1
    61    51    83    1
    62    51    84    1
    63    51    85    1
    64    52    53    1
    65    52    54    1
    66    52    55    1
    67    53    56    1
    68    53    57    1
    69    53    58    1
    70    57    59    1
    71    57    60    1
    72    57    61    1
    73    61    62    1
    74    61    63    1
    75    61    64    1
    76    63    65    1
    77    63    66    1
    78    63    67    1
    79    67    68    1
    80    67    69    1
    81    67    70    1
    82    69    71    1
    83    69    72    1
    84    69    73    1
    85    73    74    1
    86    73    75    1
    87    73    76    1
    88    75    77    1
    89    75    78    1
    90    75    79    1
    91    79    80    1
    92    79    81    1
    93    79    82    1
    94    81   113    1
    95    81   115    2
    96    83    86    1
    97    83    87    1
    98    83    88    1
    99    86    89    1
   100    86    90    1
   101    86    91    1
   102    90    92    1
   103    90    93    1
   104    90    94    1
   105    94    95    1
   106    94    96    1
   107    94    97    1
   108    96    98    1
   109    96    99    1
   110    96   100    1
   111   100   101    1
   112   100   102    1
   113   100   103    1
   114   102   104    1
   115   102   105    1
   116   102   106    1
   117   106   107    1
   118   106   108    1
   119   106   109    1
   120   108   110    1
   121   108   111    1
   122   108   112    1
   123   112   116    2
   124   112   117    1
   125   113   114    1
   126   117   118    1
   127   119   122    1
   128   119   123    1
   129   119   124    1
   130   123   125    1
   131   123   126    1
   132   123   127    1
   133   127   128    1
   134   127   129    1
   135   127   130    1
   136   129   131    1
   137   129   132    1
   138   129   133    1
   139   133   134    1
   140   133   135    1
   141   133   136    1
   142   135   137    1
   143   135   138    1
   144   135   139    1
   145   137   140    1
   146   137   141    1
   147   137   142    1
   148   141   143    1
   149   141   144    1
   150   141   145    1
   151   144   146    1
   152   144   147    1
   153   144   148    1
   154   148   149    1
   155   148   150    1
   156   148   151    1
   157   150   152    1
   158   150   153    1
   159   150   154    1
