@<TRIPOS>MOLECULE
motor6B-S
 128 133 0 0 0
SMALL
GASTEIGER

@<TRIPOS>ATOM
      1 C302      -30.5175   40.1085   27.1270 C.3     1  HED       -0.0500
      2 H         -30.3434   41.0748   27.6461 H       1  HED        0.0266
      3 H1        -29.6110   39.4740   27.2399 H       1  HED        0.0266
      4 C303      -30.7428   40.3318   25.6050 C.3     1  HED       -0.0530
      5 H2        -31.6515   40.9513   25.4439 H       1  HED        0.0265
      6 C304      -29.5340   41.0246   24.9427 C.3     1  HED       -0.0531
      7 H4        -29.4095   42.0195   25.4226 H       1  HED        0.0265
      8 H5        -28.6117   40.4341   25.1358 H       1  HED        0.0265
      9 C305      -29.6575   41.2496   23.4142 C.3     1  HED       -0.0531
     10 H6        -28.7665   41.8412   23.1079 H       1  HED        0.0265
     11 C306      -29.6492   39.9450   22.5880 C.3     1  HED       -0.0531
     12 C307      -29.5042   40.1702   21.0643 C.3     1  HED       -0.0531
     13 H11       -29.3960   39.1700   20.5950 H       1  HED        0.0265
     14 C308      -30.6973   40.8935   20.4132 C.3     1  HED       -0.0531
     15 H13       -30.8215   41.8858   20.8940 H       1  HED        0.0265
     16 C309      -30.5097   41.1493   18.9017 C.3     1  HED       -0.0533
     17 H15       -29.5986   41.7671   18.7417 H       1  HED        0.0265
     18 H16       -31.3876   41.7347   18.5494 H       1  HED        0.0265
     19 C310      -30.4185   39.8688   18.0541 C.3     1  HED       -0.0559
     20 H17       -29.5267   39.2751   18.3427 H       1  HED        0.0263
     21 C311      -30.3035   40.1991   16.5655 C.3     1  HED       -0.0653
     22 H19       -29.3891   40.7989   16.3695 H       1  HED        0.0230
     23 H20       -30.2417   39.2593   15.9763 H       1  HED        0.0230
     24 H21       -31.1928   40.7706   16.2234 H       1  HED        0.0230
     25 H18       -31.3296   39.2520   18.2113 H       1  HED        0.0263
     26 H14       -31.6266   40.3059   20.5764 H       1  HED        0.0265
     27 H12       -28.5716   40.7443   20.8692 H       1  HED        0.0265
     28 H8        -28.7632   39.3505   22.9013 H       1  HED        0.0265
     29 H10       -30.5605   39.3453   22.7941 H       1  HED        0.0265
     30 H7        -30.5637   41.8512   23.1917 H       1  HED        0.0265
     31 H3        -30.8980   39.3431   25.1222 H       1  HED        0.0265
     32 C301      -31.7147   39.3793   27.7748 C.3     1  HED       -0.0186
     33 H22       -32.6308   40.0060   27.7283 H       1  HED        0.0298
     34 H23       -31.8960   38.4710   27.1565 H       1  HED        0.0298
     35 C18       -31.4793   38.8574   29.2163 C.3     2  COR        0.0896
     36 H18       -32.3325   38.1819   29.4473 H       2  COR        0.0696
     37 H19       -30.5435   38.2559   29.2103 H       2  COR        0.0696
     38 O1        -31.4275   39.8322   30.2179 O.3     2  COR       -0.4908
     39 C11       -31.2469   39.5479   31.5626 C.ar    2  COR        0.1350
     40 C13       -31.0170   38.2336   31.9949 C.ar    2  COR       -0.0111
     41 C12       -30.7689   37.9451   33.3404 C.ar    2  COR       -0.0138
     42 C10       -30.7702   38.9765   34.3189 C.ar    2  COR       -0.0092
     43 C14       -30.3979   38.6367   35.6403 C.ar    2  COR       -0.0534
     44 H7        -30.3136   39.3791   36.4122 H       2  COR        0.0624
     45 C15       -30.0960   37.3181   35.9816 C.ar    2  COR       -0.0611
     46 C16       -30.1434   36.3125   35.0215 C.ar    2  COR       -0.0612
     47 C17       -30.4708   36.6223   33.7047 C.ar    2  COR       -0.0539
     48 H10       -30.4706   35.8314   32.9631 H       2  COR        0.0624
     49 H11       -29.9031   35.2929   35.2918 H       2  COR        0.0618
     50 H8        -29.8143   37.0777   36.9981 H       2  COR        0.0618
     51 H6        -30.9881   37.4211   31.2812 H       2  COR        0.0660
     52 C9        -31.2782   40.5877   32.5295 C.ar    2  COR        0.0576
     53 S1        -31.6265   42.2647   31.9352 S.3     2  COR       -0.1205
     54 C1        -30.6424   43.3067   33.0798 C.3     2  COR        0.0050
     55 C2        -30.0301   42.5403   34.2628 C.3     2  COR       -0.0082
     56 C3        -29.0721   43.3721   35.1353 C.3     2  COR       -0.0576
     57 H         -28.2681   43.7897   34.4880 H       2  COR        0.0236
     58 H1        -29.5059   44.2558   35.6161 H       2  COR        0.0236
     59 H2        -28.5888   42.7243   35.8959 H       2  COR        0.0236
     60 H5        -29.2581   41.8893   33.7832 H       2  COR        0.0355
     61 H3        -31.3258   44.0963   33.4333 H       2  COR        0.0386
     62 H4        -29.8284   43.7913   32.4968 H       2  COR        0.0386
     63 C4        -31.0744   40.3151   33.9328 C.ar    2  COR        0.0037
     64 C5        -31.0035   41.5055   34.8921 C.2     2  COR       -0.0265
     65 C6        -31.6086   41.5735   36.1917 C.2     2  COR       -0.0043
     66 C8        -32.5504   40.5046   36.7642 C.ar    2  COR        0.0003
     67 C19       -33.4205   39.7717   35.9360 C.ar    2  COR       -0.0527
     68 C24       -34.3685   38.9005   36.4888 C.ar    2  COR       -0.0577
     69 C25       -34.4936   38.7530   37.8773 C.ar    2  COR       -0.0188
     70 C26       -33.6443   39.4570   38.7448 C.ar    2  COR        0.1348
     71 C20       -32.6610   40.3131   38.1818 C.ar    2  COR        0.0622
     72 S2        -31.5049   41.1059   39.2972 S.3     2  COR       -0.0809
     73 O2        -33.7533   39.3615   40.1179 O.3     2  COR       -0.4908
     74 C30       -34.7692   38.7486   40.8665 C.3     2  COR        0.0896
     75 C         -34.5600   39.0391   42.3842 C.3     2  COR       -0.0186
     76 H24       -34.4837   40.1444   42.4817 H       2  COR        0.0298
     77 C31       -35.6795   38.5654   43.3804 C.3     2  COR       -0.0500
     78 H26       -35.7820   37.4588   43.3701 H       2  COR        0.0266
     79 C32       -35.3400   39.0678   44.8177 C.3     2  COR       -0.0525
     80 H28       -34.3835   38.6124   45.1528 H       2  COR        0.0265
     81 H29       -35.1769   40.1628   44.7227 H       2  COR        0.0265
     82 C33       -36.3741   38.9455   45.9763 C.3     2  COR       -0.0428
     83 H30       -35.9362   39.5521   46.8015 H       2  COR        0.0270
     84 H31       -37.3436   39.4143   45.6982 H       2  COR        0.0270
     85 C34       -36.6161   37.5458   46.5788 C.3     2  COR        0.0492
     86 C37       -37.3712   37.6109   47.8970 C.2     2  COR        0.3560
     87 O         -37.6105   36.5817   48.5092 O.co2   2  COR       -0.2464
     88 O4        -37.7481   38.7937   48.4274 O.co2   2  COR       -0.2464
     89 H27       -36.6461   39.0155   43.0671 H       2  COR        0.0266
     90 H25       -33.5887   38.6002   42.6994 H       2  COR        0.0298
     91 H22       -35.7469   39.1814   40.5636 H       2  COR        0.0696
     92 H23       -34.7793   37.6534   40.6812 H       2  COR        0.0696
     93 H13       -35.2530   38.0904   38.2685 H       2  COR        0.0654
     94 H12       -35.0348   38.3557   35.8323 H       2  COR        0.0619
     95 H14       -33.4062   39.8971   34.8635 H       2  COR        0.0624
     96 C7        -31.5729   42.8101   37.0984 C.ar    2  COR        0.0003
     97 C22       -31.7021   44.0918   36.5481 C.ar    2  COR       -0.0527
     98 C27       -31.7757   45.2256   37.3529 C.ar    2  COR       -0.0577
     99 C28       -31.7708   45.1163   38.7417 C.ar    2  COR       -0.0188
    100 H17       -31.8461   46.0263   39.3179 H       2  COR        0.0654
    101 H16       -31.8638   46.2016   36.8916 H       2  COR        0.0619
    102 H15       -31.7734   44.2245   35.4886 H       2  COR        0.0624
    103 C21       -31.6052   42.7017   38.5284 C.ar    2  COR        0.0622
    104 C23       -31.7066   43.8516   39.3653 C.ar    2  COR        0.1348
    105 O3        -31.7812   43.7201   40.7484 O.3     2  COR       -0.4908
    106 C29       -31.9759   44.7992   41.6242 C.3     2  COR        0.0896
    107 H20       -31.0772   45.4529   41.6446 H       2  COR        0.0696
    108 H21       -32.8218   45.3910   41.2112 H       2  COR        0.0696
    109 C201      -32.4693   44.4749   43.0754 C.3     3  RLG       -0.0186
    110 H17       -32.8179   45.4504   43.4804 H       3  RLG        0.0298
    111 H18       -33.3520   43.8022   43.0184 H       3  RLG        0.0298
    112 C202      -31.4669   43.9496   44.1391 C.3     3  RLG       -0.0500
    113 H         -30.5872   44.6271   44.1839 H       3  RLG        0.0266
    114 C203      -32.1213   43.8879   45.5676 C.3     3  RLG       -0.0525
    115 H2        -32.4730   44.8955   45.8861 H       3  RLG        0.0265
    116 H3        -33.0050   43.2183   45.5036 H       3  RLG        0.0265
    117 C204      -31.1569   43.3193   46.6425 C.3     3  RLG       -0.0428
    118 H4        -30.3038   44.0099   46.8255 H       3  RLG        0.0270
    119 C205      -31.7975   42.8796   47.9915 C.3     3  RLG        0.0492
    120 C210      -32.1859   43.9339   48.9969 C.2     3  RLG        0.3560
    121 O201      -32.0130   45.1200   48.7734 O.co2   3  RLG       -0.2464
    122 O202      -32.6823   43.5470   50.1916 O.co2   3  RLG       -0.2464
    123 H5        -30.7495   42.3820   46.2138 H       3  RLG        0.0270
    124 H1        -31.1218   42.9363   43.8419 H       3  RLG        0.0266
    125 H         -35.6393   37.0658   46.7988 H       1  RLG        0.0379
    126 H         -37.1817   36.9132   45.8638 H       1  RLG        0.0379
    127 H         -31.0452   42.2526   48.5179 H       1  RLG        0.0379
    128 H         -32.6821   42.2404   47.7851 H       1  RLG        0.0379
@<TRIPOS>BOND
     1    34    32    1
     2    22    21    1
     3    23    21    1
     4    21    24    1
     5    21    19    1
     6    36    35    1
     7    33    32    1
     8    31     4    1
     9    17    16    1
    10    20    19    1
    11    32    35    1
    12    32     1    1
    13    13    12    1
    14    10     9    1
    15    35    37    1
    16    35    38    1
    17    19    16    1
    18    19    25    1
    19    16    18    1
    20    16    14    1
    21     3     1    1
    22     4     1    1
    23     4     5    1
    24     4     6    1
    25     1     2    1
    26    12    27    1
    27    12    14    1
    28    12    11    1
    29     9     6    1
    30     9    30    1
    31     9    11    1
    32    38    39    1
    33    26    14    1
    34     8     6    1
    35    14    15    1
    36     6     7    1
    37    11    28    1
    38    11    29    1
    39    53    52    1
    40    53    54    1
    41    39    40   ar
    42    39    52   ar
    43    51    40    1
    44    62    54    1
    45    40    41   ar
    46    52    63   ar
    47    54    61    1
    48    54    55    1
    49    60    55    1
    50    41    42   ar
    51    41    47   ar
    52    63    42   ar
    53    63    64    1
    54    55    64    1
    55    55    56    1
    56    48    47    1
    57    95    67    1
    58    42    43   ar
    59    57    56    1
    60    47    46   ar
    61    64    65    2
    62   102    97    1
    63    56    58    1
    64    56    59    1
    65    94    68    1
    66    67    68   ar
    67    67    66   ar
    68    65    66    1
    69    65    96    1
    70    97    96   ar
    71    97    98   ar
    72    43    44    1
    73    43    45   ar
    74    46    49    1
    75    46    45   ar
    76    68    69   ar
    77   101    98    1
    78    66    71   ar
    79    96   103   ar
    80    98    99   ar
    81    45    50    1
    82    69    93    1
    83    69    70   ar
    84    71    70   ar
    85    71    72    1
    86   103   104   ar
    87   103    72    1
    88    99   100    1
    89    99   104   ar
    90    70    73    1
    91   104   105    1
    92    73    74    1
    93    91    74    1
    94   105   106    1
    95   107   106    1
    96    74    92    1
    97    74    75    1
    98   108   106    1
    99   106   109    1
   100    78    77    1
   101    89    77    1
   102    75    77    1
   103    75    76    1
   104    75    90    1
   105    77    79    1
   106   124   112    1
   107   109   111    1
   108   109   112    1
   109   109   110    1
   110   113   112    1
   111    84    82    1
   112   112   114    1
   113    83    82    1
   114    82    79    1
   115    82    85    1
   116    79    80    1
   117    79    81    1
   118   118   117    1
   119   114   117    1
   120   114   116    1
   121   114   115    1
   122   123   117    1
   123   117   119    1
   124   121   120   ar
   125   120   122   ar
   126    87    86   ar
   127    86    88   ar
   128    86    85    1
   129    85   125    1
   130    85   126    1
   131   120   119    1
   132   119   127    1
   133   119   128    1
