@<TRIPOS>MOLECULE
MOTORB-R
 152 157 0 0 0
SMALL
GASTEIGER

@<TRIPOS>ATOM
      1 C302       30.1228   40.1149   26.0049 C.3     1  HED       -0.0500
      2 H          30.0336   41.1204   26.4680 H       1  HED        0.0266
      3 H1         29.1544   39.5815   26.1258 H       1  HED        0.0266
      4 C303       30.4038   40.2371   24.4711 C.3     1  HED       -0.0530
      5 H2         31.3628   40.7755   24.3128 H       1  HED        0.0265
      6 C304       29.2745   40.9823   23.7222 C.3     1  HED       -0.0531
      7 H4         29.1876   41.9960   24.1695 H       1  HED        0.0265
      8 H5         28.3099   40.4537   23.8859 H       1  HED        0.0265
      9 C305       29.4754   41.1724   22.1910 C.3     1  HED       -0.0531
     10 H6         28.6269   41.8022   21.8425 H       1  HED        0.0265
     11 C306       29.4415   39.8683   21.3609 C.3     1  HED       -0.0531
     12 C307       29.3398   40.1001   19.8283 C.3     1  HED       -0.0531
     13 H11        29.2155   39.1064   19.3482 H       1  HED        0.0265
     14 C308       30.5592   40.7997   19.1969 C.3     1  HED       -0.0531
     15 H13        30.6986   41.7839   19.6898 H       1  HED        0.0265
     16 C309       30.4002   41.0810   17.6838 C.3     1  HED       -0.0533
     17 H15        29.5040   41.7187   17.5178 H       1  HED        0.0265
     18 H16        31.2941   41.6558   17.3544 H       1  HED        0.0265
     19 C310       30.3010   39.8193   16.8084 C.3     1  HED       -0.0559
     20 H17        29.3948   39.2356   17.0717 H       1  HED        0.0263
     21 C311       30.2189   40.1811   15.3232 C.3     1  HED       -0.0653
     22 H19        29.3188   40.8003   15.1207 H       1  HED        0.0230
     23 H20        30.1530   39.2552   14.7126 H       1  HED        0.0230
     24 H21        31.1234   40.7442   15.0073 H       1  HED        0.0230
     25 H18        31.1990   39.1842   16.9672 H       1  HED        0.0263
     26 H14        31.4725   40.1896   19.3661 H       1  HED        0.0265
     27 H12        28.4263   40.6982   19.6155 H       1  HED        0.0265
     28 H8         28.5263   39.3062   21.6485 H       1  HED        0.0265
     29 H10        30.3245   39.2369   21.5943 H       1  HED        0.0265
     30 H7         30.4163   41.7291   21.9980 H       1  HED        0.0265
     31 H3         30.4946   39.2180   24.0368 H       1  HED        0.0265
     32 C301       31.2263   39.2966   26.7241 C.3     1  HED       -0.0186
     33 H22        32.2117   39.8035   26.6512 H       1  HED        0.0298
     34 H23        31.2971   38.3465   26.1482 H       1  HED        0.0298
     35 C18        30.9470   38.8515   28.1928 C.3     2  COR        0.0896
     36 H18        31.6878   38.0489   28.4024 H       2  COR        0.0696
     37 H19        29.9281   38.4068   28.2350 H       2  COR        0.0696
     38 O1         31.1048   39.8192   29.1955 O.3     2  COR       -0.4908
     39 C11        30.9660   39.5538   30.5529 C.ar    2  COR        0.1350
     40 C13        30.5847   38.2806   31.0038 C.ar    2  COR       -0.0111
     41 C12        30.3725   38.0207   32.3621 C.ar    2  COR       -0.0138
     42 C10        30.5608   39.0368   33.3417 C.ar    2  COR       -0.0092
     43 C14        30.2105   38.7401   34.6791 C.ar    2  COR       -0.0534
     44 H7         30.2646   39.4774   35.4564 H       2  COR        0.0624
     45 C15        29.7448   37.4726   35.0338 C.ar    2  COR       -0.0611
     46 C16        29.6029   36.4789   34.0708 C.ar    2  COR       -0.0612
     47 C17        29.9086   36.7498   32.7411 C.ar    2  COR       -0.0539
     48 H10        29.7576   35.9736   31.9991 H       2  COR        0.0624
     49 H11        29.2310   35.5018   34.3507 H       2  COR        0.0618
     50 H8         29.4803   37.2649   36.0622 H       2  COR        0.0618
     51 H6         30.4045   37.4843   30.2939 H       2  COR        0.0660
     52 C9         31.1836   40.5733   31.5194 C.ar    2  COR        0.0576
     53 S1         31.7074   42.1977   30.9113 S.3     2  COR       -0.1205
     54 C1         30.8032   43.3316   32.0327 C.3     2  COR        0.0050
     55 C2         30.1573   42.6326   33.2392 C.3     2  COR       -0.0082
     56 C3         29.2601   43.5371   34.1066 C.3     2  COR       -0.0576
     57 H          28.4681   43.9814   33.4636 H       2  COR        0.0236
     58 H1         29.7452   44.4113   34.5544 H       2  COR        0.0236
     59 H2         28.7587   42.9361   34.8942 H       2  COR        0.0236
     60 H5         29.3340   42.0300   32.7835 H       2  COR        0.0355
     61 H3         31.5401   44.0841   32.3559 H       2  COR        0.0386
     62 H4         30.0173   43.8551   31.4470 H       2  COR        0.0386
     63 C4         31.0100   40.3284   32.9343 C.ar    2  COR        0.0037
     64 C5         31.0613   41.5370   33.8741 C.2     2  COR       -0.0265
     65 C6         31.6604   41.6039   35.1710 C.2     2  COR       -0.0043
     66 C8         32.5143   40.5076   35.8223 C.ar    2  COR        0.0003
     67 C19        33.3578   39.6783   35.0649 C.ar    2  COR       -0.0527
     68 C24        34.2557   38.8053   35.7021 C.ar    2  COR       -0.0577
     69 C25        34.3507   38.7549   37.1028 C.ar    2  COR       -0.0188
     70 C26        33.5122   39.5511   37.8978 C.ar    2  COR        0.1348
     71 C20        32.5768   40.3993   37.2508 C.ar    2  COR        0.0622
     72 S2         31.4034   41.2899   38.2702 S.3     2  COR       -0.0809
     73 O2         33.5902   39.5616   39.2761 O.3     2  COR       -0.4908
     74 C30        34.5398   38.9486   40.1068 C.3     2  COR        0.0896
     75 C          34.3432   39.4408   41.5742 C.3     2  COR       -0.0186
     76 H24        34.3977   40.5518   41.5344 H       2  COR        0.0298
     77 C31        35.3804   38.9674   42.6564 C.3     2  COR       -0.0500
     78 H26        35.3622   37.8630   42.7750 H       2  COR        0.0266
     79 C32        35.0714   39.6627   44.0214 C.3     2  COR       -0.0530
     80 H28        34.0781   39.3397   44.3983 H       2  COR        0.0265
     81 H29        34.9979   40.7469   43.7819 H       2  COR        0.0265
     82 C33        36.1096   39.6246   45.1875 C.3     2  COR       -0.0531
     83 H30        35.7477   40.3835   45.9170 H       2  COR        0.0265
     84 H31        37.0899   39.9803   44.8008 H       2  COR        0.0265
     85 C34        36.3289   38.3309   46.0215 C.3     2  COR       -0.0531
     86 H32        35.3622   37.9516   46.4166 H       2  COR        0.0265
     87 C35        37.2766   38.6547   47.2224 C.3     2  COR       -0.0530
     88 H34        38.1857   39.1294   46.7935 H       2  COR        0.0265
     89 H35        36.8055   39.3988   47.9020 H       2  COR        0.0265
     90 C36        37.7998   37.4531   48.0472 C.3     2  COR       -0.0526
     91 C39        36.7881   36.6980   48.9383 C.3     2  COR       -0.0428
     92 C38        36.2719   37.4662   50.1784 C.3     2  COR        0.0492
     93 C37        37.3070   37.7519   51.2460 C.2     2  COR        0.3560
     94 O          38.4675   37.3946   51.1176 O.co2   2  COR       -0.2464
     95 O4         36.9309   38.3747   52.3800 O.co2   2  COR       -0.2464
     96 H36        35.7916   38.4146   49.8657 H       2  COR        0.0379
     97 H37        35.4982   36.8331   50.6664 H       2  COR        0.0379
     98 H38        37.2790   35.7728   49.3166 H       2  COR        0.0270
     99 H39        35.9288   36.3850   48.3115 H       2  COR        0.0270
    100 H40        38.6262   37.8136   48.6958 H       2  COR        0.0265
    101 H41        38.2469   36.7319   47.3317 H       2  COR        0.0265
    102 H33        36.7859   37.5555   45.3714 H       2  COR        0.0265
    103 H27        36.3949   39.2733   42.3210 H       2  COR        0.0266
    104 H25        33.3217   39.1607   41.9083 H       2  COR        0.0298
    105 H22        35.5590   39.2465   39.7775 H       2  COR        0.0696
    106 H23        34.4443   37.8436   40.0496 H       2  COR        0.0696
    107 H13        35.0760   38.0950   37.5599 H       2  COR        0.0654
    108 H12        34.9113   38.1867   35.1028 H       2  COR        0.0619
    109 H14        33.3635   39.7340   33.9857 H       2  COR        0.0624
    110 C7         31.6846   42.8803   36.0116 C.ar    2  COR        0.0003
    111 C22        31.9364   44.1257   35.4171 C.ar    2  COR       -0.0527
    112 C27        32.0182   45.2918   36.1767 C.ar    2  COR       -0.0577
    113 C28        31.8962   45.2444   37.5624 C.ar    2  COR       -0.0188
    114 H17        31.9723   46.1699   38.1145 H       2  COR        0.0654
    115 H16        32.1937   46.2402   35.6847 H       2  COR        0.0619
    116 H15        32.0842   44.2024   34.3625 H       2  COR        0.0624
    117 C21        31.6224   42.8363   37.4334 C.ar    2  COR        0.0622
    118 C23        31.7174   44.0107   38.2171 C.ar    2  COR        0.1348
    119 O3         31.6614   43.9185   39.5890 O.3     2  COR       -0.4908
    120 C29        31.7030   45.0005   40.4622 C.3     2  COR        0.0896
    121 H20        30.7816   45.6140   40.3529 H       2  COR        0.0696
    122 H21        32.5834   45.6295   40.2076 H       2  COR        0.0696
    123 C201       31.9139   44.5910   41.9387 C.3     3  RLG       -0.0186
    124 H17        32.0462   45.5328   42.5159 H       3  RLG        0.0298
    125 H18        32.8532   44.0021   42.0190 H       3  RLG        0.0298
    126 C202       30.7584   43.8102   42.5906 C.3     3  RLG       -0.0500
    127 H          29.8231   44.4046   42.4944 H       3  RLG        0.0266
    128 C203       31.0297   43.5489   44.1000 C.3     3  RLG       -0.0530
    129 H2         31.1523   44.5218   44.6238 H       3  RLG        0.0265
    130 H3         31.9682   42.9635   44.2122 H       3  RLG        0.0265
    131 C204       29.8684   42.7673   44.7438 C.3     3  RLG       -0.0531
    132 H4         28.9253   43.3407   44.6085 H       3  RLG        0.0265
    133 C205       30.0154   42.4226   46.2483 C.3     3  RLG       -0.0531
    134 H6         29.1264   41.8037   46.4992 H       3  RLG        0.0265
    135 H7         30.9229   41.8063   46.4259 H       3  RLG        0.0265
    136 C206       30.0046   43.6473   47.1869 C.3     3  RLG       -0.0530
    137 H8         30.9534   44.2179   47.0918 H       3  RLG        0.0265
    138 C207       29.7193   43.2927   48.6678 C.3     3  RLG       -0.0526
    139 H11        28.7352   42.7768   48.7223 H       3  RLG        0.0265
    140 H12        29.6364   44.2501   49.2202 H       3  RLG        0.0265
    141 C208       30.7791   42.4117   49.3542 C.3     3  RLG       -0.0428
    142 H13        31.7618   42.9305   49.3602 H       3  RLG        0.0270
    143 C209       30.3991   42.0030   50.7966 C.3     3  RLG        0.0492
    144 H15        31.1766   41.2944   51.1594 H       3  RLG        0.0379
    145 H16        29.4285   41.4608   50.7948 H       3  RLG        0.0379
    146 C210       30.3143   43.1485   51.7745 C.2     3  RLG        0.3560
    147 O201       31.0654   43.1846   52.7366 O.co2   3  RLG       -0.2464
    148 O202       29.3758   44.1034   51.6328 O.co2   3  RLG       -0.2464
    149 H14        30.8834   41.4696   48.7763 H       3  RLG        0.0270
    150 H10        29.1689   44.3102   46.8748 H       3  RLG        0.0265
    151 H5         29.7654   41.8061   44.1953 H       3  RLG        0.0265
    152 H1         30.6236   42.8447   42.0570 H       3  RLG        0.0266
@<TRIPOS>BOND
     1    34    32    1
     2    22    21    1
     3    23    21    1
     4    21    24    1
     5    21    19    1
     6    36    35    1
     7    33    32    1
     8    31     4    1
     9    17    16    1
    10    20    19    1
    11    32    35    1
    12    32     1    1
    13    13    12    1
    14    10     9    1
    15    35    37    1
    16    35    38    1
    17    19    16    1
    18    19    25    1
    19    16    18    1
    20    16    14    1
    21     3     1    1
    22     4     1    1
    23     4     5    1
    24     4     6    1
    25     1     2    1
    26    12    27    1
    27    12    14    1
    28    12    11    1
    29     9     6    1
    30     9    30    1
    31     9    11    1
    32    38    39    1
    33    26    14    1
    34     8     6    1
    35    14    15    1
    36     6     7    1
    37    11    28    1
    38    11    29    1
    39    53    52    1
    40    53    54    1
    41    39    40   ar
    42    39    52   ar
    43    51    40    1
    44    62    54    1
    45    40    41   ar
    46    52    63   ar
    47    54    61    1
    48    54    55    1
    49    60    55    1
    50    41    42   ar
    51    41    47   ar
    52    63    42   ar
    53    63    64    1
    54    55    64    1
    55    55    56    1
    56    48    47    1
    57   109    67    1
    58    42    43   ar
    59    57    56    1
    60    47    46   ar
    61    64    65    2
    62   116   111    1
    63    56    58    1
    64    56    59    1
    65   108    68    1
    66    67    68   ar
    67    67    66   ar
    68    65    66    1
    69    65   110    1
    70   111   110   ar
    71   111   112   ar
    72    43    44    1
    73    43    45   ar
    74    46    49    1
    75    46    45   ar
    76    68    69   ar
    77   115   112    1
    78    66    71   ar
    79   110   117   ar
    80   112   113   ar
    81    45    50    1
    82    69   107    1
    83    69    70   ar
    84    71    70   ar
    85    71    72    1
    86   117   118   ar
    87   117    72    1
    88   113   114    1
    89   113   118   ar
    90    70    73    1
    91   118   119    1
    92    73    74    1
    93   105    74    1
    94   119   120    1
    95   121   120    1
    96    74   106    1
    97    74    75    1
    98   122   120    1
    99   120   123    1
   100    78    77    1
   101   103    77    1
   102    75    77    1
   103    75    76    1
   104    75   104    1
   105    77    79    1
   106   152   126    1
   107   123   125    1
   108   123   126    1
   109   123   124    1
   110   127   126    1
   111    84    82    1
   112   126   128    1
   113    83    82    1
   114    82    79    1
   115    82    85    1
   116    79    80    1
   117    79    81    1
   118   132   131    1
   119   128   131    1
   120   128   130    1
   121   128   129    1
   122   151   131    1
   123   131   133    1
   124    85   102    1
   125    85    86    1
   126    85    87    1
   127   139   138    1
   128    89    87    1
   129   145   143    1
   130    87    88    1
   131    87    90    1
   132   142   141    1
   133   133   134    1
   134   133   135    1
   135   133   136    1
   136   138   140    1
   137   138   136    1
   138   138   141    1
   139   150   136    1
   140   143   141    1
   141   143   144    1
   142   143   146    1
   143   136   137    1
   144   141   149    1
   145   147   146   ar
   146    90   100    1
   147    90   101    1
   148    90    91    1
   149   146   148   ar
   150    98    91    1
   151    91    99    1
   152    91    92    1
   153    96    92    1
   154    92    97    1
   155    92    93    1
   156    94    93   ar
   157    93    95   ar
