@<TRIPOS>MOLECULE
rightleg2m
 34 33 0 0 0
SMALL
GASTEIGER

@<TRIPOS>ATOM
      1 C201       -7.3368   -6.7748   -1.1928 C.3     1  RLG       -0.0559
      2 C202       -8.5892   -6.1882   -0.5211 C.3     1  RLG       -0.0533
      3 H          -8.3912   -6.0605    0.5673 H       1  RLG        0.0265
      4 C203       -9.8063   -7.1075   -0.7403 C.3     1  RLG       -0.0531
      5 H          -8.8196   -5.1917   -0.9571 H       1  RLG        0.0265
      6 H          -9.5852   -8.1263   -0.3539 H       1  RLG        0.0265
      7 H         -10.0032   -7.1759   -1.8334 H       1  RLG        0.0265
      8 C204      -11.0585   -6.5621   -0.0387 C.3     1  RLG       -0.0531
      9 H         -10.8649   -6.5182    1.0555 H       1  RLG        0.0265
     10 C205      -12.2976   -7.4383   -0.2957 C.3     1  RLG       -0.0531
     11 H         -11.2650   -5.5337   -0.4078 H       1  RLG        0.0265
     12 H         -12.1063   -8.4719    0.0680 H       1  RLG        0.0265
     13 H         -12.5049   -7.4785   -1.3883 H       1  RLG        0.0265
     14 C206      -13.5205   -6.8589    0.4323 C.3     1  RLG       -0.0530
     15 H         -13.3040   -6.8138    1.5223 H       1  RLG        0.0265
     16 C207      -14.7845   -7.7022    0.2127 C.3     1  RLG       -0.0526
     17 H         -13.7063   -5.8266    0.0619 H       1  RLG        0.0265
     18 H         -14.6100   -8.7339    0.5901 H       1  RLG        0.0265
     19 H         -15.0127   -7.7524   -0.8748 H       1  RLG        0.0265
     20 C208      -15.9793   -7.0829    0.9549 C.3     1  RLG       -0.0428
     21 H         -15.7425   -7.0329    2.0407 H       1  RLG        0.0270
     22 C209      -17.2569   -7.9117    0.7574 C.3     1  RLG        0.0492
     23 H         -16.1481   -6.0540    0.5672 H       1  RLG        0.0270
     24 H         -17.0774   -8.9404    1.1383 H       1  RLG        0.0379
     25 H         -17.4801   -7.9713   -0.3298 H       1  RLG        0.0379
     26 C210      -18.4826   -7.3605    1.4570 C.2     1  RLG        0.3560
     27 O201      -19.5392   -7.9660    1.3481 O.co2   1  RLG       -0.2464
     28 O202      -18.4568   -6.2273    2.1957 O.co2   1  RLG       -0.2464
     29 C969       -6.1533   -5.8062   -1.1882 C.3     1  DUM       -0.0653
     30 H          -7.5593   -7.0195   -2.2529 H       1  RLG        0.0263
     31 H          -7.0494   -7.7090   -0.6625 H       1  RLG        0.0263
     32 H969       -6.3956   -4.9022   -1.7880 H       1  DUM        0.0230
     33 H968       -5.2753   -6.3022   -1.6562 H       1  DUM        0.0230
     34 H967       -5.8792   -5.4993   -0.1574 H       1  DUM        0.0230
@<TRIPOS>BOND
     1     1     2    1
     2     2     3    1
     3     2     4    1
     4     2     5    1
     5     4     6    1
     6     4     7    1
     7     4     8    1
     8     8     9    1
     9     8    10    1
    10     8    11    1
    11    10    12    1
    12    10    13    1
    13    10    14    1
    14    14    15    1
    15    14    16    1
    16    14    17    1
    17    16    18    1
    18    16    19    1
    19    16    20    1
    20    20    21    1
    21    20    22    1
    22    20    23    1
    23    22    24    1
    24    22    25    1
    25    22    26    1
    26    26    27   ar
    27    26    28   ar
    28     1    29    1
    29     1    30    1
    30     1    31    1
    31    29    32    1
    32    29    33    1
    33    29    34    1
