@<TRIPOS>MOLECULE
*****
 37 36 0 0 0
SMALL
GASTEIGER

@<TRIPOS>ATOM
      1 C          -7.3895   -6.7347   -1.2502 C.3     1  RLG       -0.0559
      2 C          -8.6070   -6.1107   -0.5541 C.3     1  RLG       -0.0533
      3 H          -8.3795   -5.9709    0.5255 H       1  RLG        0.0265
      4 C          -9.8378   -7.0105   -0.7051 C.3     1  RLG       -0.0531
      5 H          -8.8243   -5.1189   -1.0079 H       1  RLG        0.0265
      6 H          -9.6131   -8.0110   -0.2724 H       1  RLG        0.0265
      7 H         -10.0611   -7.1348   -1.7881 H       1  RLG        0.0265
      8 C         -11.0694   -6.4255    0.0054 C.3     1  RLG       -0.0531
      9 H         -10.8552   -6.3317    1.0925 H       1  RLG        0.0265
     10 C         -12.2759   -7.3460   -0.2083 C.3     1  RLG       -0.0531
     11 H         -11.2996   -5.4178   -0.4053 H       1  RLG        0.0265
     12 H         -12.0188   -8.3639    0.1610 H       1  RLG        0.0265
     13 H         -12.4846   -7.4069   -1.2995 H       1  RLG        0.0265
     14 C         -13.5420   -6.8739    0.5253 C.3     1  RLG       -0.0531
     15 H         -13.3465   -6.8623    1.6199 H       1  RLG        0.0265
     16 C         -14.6896   -7.8416    0.2017 C.3     1  RLG       -0.0530
     17 H         -13.8197   -5.8475    0.1984 H       1  RLG        0.0265
     18 H         -14.3660   -8.8756    0.4558 H       1  RLG        0.0265
     19 H         -14.8909   -7.7907   -0.8911 H       1  RLG        0.0265
     20 C         -15.9868   -7.5599    0.9734 C.3     1  RLG       -0.0527
     21 H         -15.7899   -7.6910    2.0599 H       1  RLG        0.0265
     22 C         -17.0687   -8.5568    0.5077 C.3     1  RLG       -0.0480
     23 H         -16.3181   -6.5161    0.7946 H       1  RLG        0.0265
     24 C         -19.1661   -7.3001    1.3346 C.3     1  RLG        0.0417
     25 O         -20.2139   -7.2554    1.9604 O.co2   1  RLG       -0.5498
     26 O         -18.7685   -6.2215    0.6347 O.co2   1  RLG       -0.5498
     27 C969       -6.1623   -5.8361   -1.1323 C.3     1  DUM       -0.0653
     28 H          -7.6119   -6.8928   -2.3283 H       1  RLG        0.0263
     29 H          -7.1592   -7.7197   -0.7875 H       1  RLG        0.0263
     30 H969       -6.3570   -4.8547   -1.6149 H       1  DUM        0.0230
     31 H968       -5.2990   -6.3160   -1.6403 H       1  DUM        0.0230
     32 H967       -5.9020   -5.6742   -0.0647 H       1  DUM        0.0230
     33 C         -18.3565   -8.5687    1.3474 C.3     1  RLG       -0.0132
     34 H         -19.0044   -9.3791    0.9457 H       1  RLG        0.0325
     35 H         -18.0984   -8.8244    2.3972 H       1  RLG        0.0325
     36 H         -17.3137   -8.3674   -0.5608 H       1  RLG        0.0269
     37 H         -16.6479   -9.5839    0.5842 H       1  RLG        0.0269
@<TRIPOS>BOND
     1     1     2    1
     2     2     3    1
     3     2     4    1
     4     2     5    1
     5     4     6    1
     6     4     7    1
     7     4     8    1
     8     8     9    1
     9     8    10    1
    10     8    11    1
    11    10    12    1
    12    10    13    1
    13    10    14    1
    14    14    15    1
    15    14    16    1
    16    14    17    1
    17    16    18    1
    18    16    19    1
    19    16    20    1
    20    20    21    1
    21    20    22    1
    22    20    23    1
    23    24    25   ar
    24    24    26   ar
    25     1    27    1
    26     1    28    1
    27     1    29    1
    28    27    30    1
    29    27    31    1
    30    27    32    1
    31    24    33    1
    32    33    22    1
    33    33    34    1
    34    33    35    1
    35    22    36    1
    36    22    37    1
