@<TRIPOS>MOLECULE
*****
 22 21 0 0 0
SMALL
GASTEIGER

@<TRIPOS>ATOM
      1 C          -8.0259   -6.7777   -1.1229 C.3     1  RLG      -0.0559
      2 C          -9.2421   -6.1680   -0.4178 C.3     1  RLG      -0.0533
      3 H          -9.0239   -6.0648    0.6685 H       1  RLG       0.0265
      4 C         -10.4765   -7.0569   -0.6059 C.3     1  RLG      -0.0526
      5 H          -9.4472   -5.1585   -0.8383 H       1  RLG       0.0265
      6 H         -10.2667   -8.0665   -0.1888 H       1  RLG       0.0265
      7 H         -10.6955   -7.1565   -1.6923 H       1  RLG       0.0265
      8 C         -11.6978   -6.4613    0.1008 C.3     1  RLG      -0.0428
      9 H         -11.4780   -6.3508    1.1860 H       1  RLG       0.0270
     10 C         -12.9227   -7.3657   -0.0668 C.3     1  RLG       0.0492
     11 H         -11.9122   -5.4567   -0.3261 H       1  RLG       0.0270
     12 O         -14.5994   -5.5727    0.1833 O.co2   1  RLG      -0.2464
     13 C969       -6.7886   -5.9021   -0.9546 C.3     1  DUM      -0.0653
     14 H          -8.2409   -6.8878   -2.2082 H       1  RLG       0.0263
     15 H          -7.8150   -7.7827   -0.6965 H       1  RLG       0.0263
     16 H969       -6.9635   -4.8981   -1.3965 H       1  DUM       0.0230
     17 H968       -5.9286   -6.3746   -1.4744 H       1  DUM       0.0230
     18 H967       -6.5367   -5.7901    0.1215 H       1  DUM       0.0230
     19 C         -14.1188   -6.7609    0.6068 C.2     1  RLG       0.3560
     20 H         -12.7024   -8.3620    0.3768 H       1  RLG       0.0379
     21 H         -13.1552   -7.5038   -1.1452 H       1  RLG       0.0379
     22 O         -14.6620   -7.3466    1.5323 O.co2   1  RLG       -0.2464
@<TRIPOS>BOND
     1     1     2    1
     2     2     3    1
     3     2     4    1
     4     2     5    1
     5     4     6    1
     6     4     7    1
     7     4     8    1
     8     8     9    1
     9     8    10    1
    10     8    11    1
    11     1    13    1
    12     1    14    1
    13     1    15    1
    14    13    16    1
    15    13    17    1
    16    13    18    1
    17    19    12   ar
    18    19    10    1
    19    10    20    1
    20    10    21    1
    21    19    22   ar
