@<TRIPOS>MOLECULE
*****
 28 27 0 0 0
SMALL
GASTEIGER

@<TRIPOS>ATOM
      1 C          -7.6915   -6.7632   -1.1832 C.3     1  RLG       -0.0559
      2 C          -8.9084   -6.1496   -0.4766 C.3     1  RLG       -0.0533
      3 H          -8.6824   -6.0234    0.6052 H       1  RLG        0.0265
      4 C         -10.1419   -7.0474   -0.6410 C.3     1  RLG       -0.0531
      5 H          -9.1219   -5.1506   -0.9169 H       1  RLG        0.0265
      6 H          -9.9287   -8.0488   -0.2059 H       1  RLG        0.0265
      7 H         -10.3549   -7.1679   -1.7262 H       1  RLG        0.0265
      8 C         -11.3784   -6.4505    0.0473 C.3     1  RLG       -0.0530
      9 H         -11.1820   -6.3414    1.1368 H       1  RLG        0.0265
     10 C         -12.6025   -7.3522   -0.1680 C.3     1  RLG       -0.0527
     11 H         -11.5858   -5.4453   -0.3813 H       1  RLG        0.0265
     12 H         -12.3992   -8.3575    0.2628 H       1  RLG        0.0265
     13 H         -12.7798   -7.4612   -1.2608 H       1  RLG        0.0265
     14 C         -13.8651   -6.7688    0.4807 C.3     1  RLG       -0.0480
     15 H         -13.7082   -6.6667    1.5775 H       1  RLG        0.0269
     16 C         -15.0747   -7.6766    0.2197 C.3     1  RLG       -0.0132
     17 H         -14.0625   -5.7614    0.0520 H       1  RLG        0.0269
     18 C         -16.3264   -7.1055    0.8222 C.3     1  RLG        0.0417
     19 O         -16.9443   -7.7339    1.6650 O.co2   1  RLG       -0.5498
     20 O         -16.7828   -5.9039    0.4169 O.co2   1  RLG       -0.5498
     21 C969       -6.4583   -5.8740   -1.0489 C.3     1  DUM       -0.0653
     22 H          -7.9153   -6.8969   -2.2643 H       1  RLG        0.0263
     23 H          -7.4658   -7.7582   -0.7411 H       1  RLG        0.0263
     24 H969       -6.6460   -4.8805   -1.5091 H       1  DUM        0.0230
     25 H968       -5.5998   -6.3485   -1.5705 H       1  DUM        0.0230
     26 H967       -6.1925   -5.7379    0.0208 H       1  DUM        0.0230
     27 H         -14.8783   -8.6837    0.6507 H       1  RLG        0.0325
     28 H         -15.2325   -7.7870   -0.8748 H       1  RLG        0.0325
@<TRIPOS>BOND
     1     1     2    1
     2     2     3    1
     3     2     4    1
     4     2     5    1
     5     4     6    1
     6     4     7    1
     7     4     8    1
     8     8     9    1
     9     8    10    1
    10     8    11    1
    11    10    12    1
    12    10    13    1
    13    10    14    1
    14    14    15    1
    15    14    16    1
    16    14    17    1
    17    18    19   ar
    18    18    20   ar
    19     1    21    1
    20     1    22    1
    21     1    23    1
    22    21    24    1
    23    21    25    1
    24    21    26    1
    25    18    16    1
    26    16    27    1
    27    16    28    1
